pglib_opf_case1951_rte/pglib_opf_case1951_rte_10regions.m
% -------------------------------------------------------------------------
% Partitioned MATPOWER Case File
% Copyright (c) 2025 Milad Hasanzadeh
% Generated on: 2025-06-25
% This file contains partitioned data for 10 regions


% -------------------- mpc_regionR1 --------------------

mpc_regionR1.version = '2';
mpc_regionR1.baseMVA = 100.0000;
mpc_regionR1.bus = [
%	bus_i       type        Pd          Qd          Gs          Bs          area        Vm          Va          baseKV      zone        Vmax        Vmin        
	 1	 1	 144.2	 18.9	 0	 0	 1	 1.03778	 0	 225	 1	 1.08889	 0.98667;
	 2	 1	 5.4	 1.4	 0	 0	 1	 1.03778	 0	 225	 1	 1.08889	 0.98667;
	 3	 1	 92.2	 26	 0	 0	 1	 1.03778	 0	 225	 1	 1.08889	 0.98667;
	 4	 2	 52.3	 16.7	 0	 0	 1	 1.00923	 0	 20	 1	 1.06846	 0.95;
	 5	 1	 0	 0	 0	 0	 1	 1.03778	 0	 225	 1	 1.08889	 0.98667;
	 6	 1	 154.4	 67.6	 0	 0	 1	 1.03778	 0	 225	 1	 1.08889	 0.98667;
	 7	 1	 0.3	 3.5	 0	 0	 1	 1.03778	 0	 225	 1	 1.08889	 0.98667;
	 8	 1	 0.3	 3.5	 0	 0	 1	 1.03778	 0	 225	 1	 1.08889	 0.98667;
	 9	 1	 0	 0	 0	 0	 1	 1.07237	 0	 380	 1	 1.10526	 1.03947;
	 10	 1	 0	 0	 0	 0	 1	 1.07237	 0	 380	 1	 1.10526	 1.03947;
	 11	 1	 0	 0	 0	 0	 1	 1.03778	 0	 225	 1	 1.08889	 0.98667;
	 12	 1	 0	 0	 0	 0	 1	 1.03778	 0	 225	 1	 1.08889	 0.98667;
	 13	 1	 0	 0	 0	 0	 1	 1.03778	 0	 225	 1	 1.08889	 0.98667;
	 14	 1	 0	 0	 0	 0	 1	 1.03778	 0	 225	 1	 1.08889	 0.98667;
	 15	 1	 55.4	 23.4	 0	 0	 1	 1.03778	 0	 225	 1	 1.08889	 0.98667;
	 16	 1	 94.2	 23	 0	 0	 1	 1.03778	 0	 225	 1	 1.08889	 0.98667;
	 17	 1	 0	 0	 0	 0	 1	 1.03778	 0	 225	 1	 1.08889	 0.98667;
	 18	 1	 0	 0	 0	 0	 1	 1.03778	 0	 225	 1	 1.08889	 0.98667;
	 19	 1	 0	 0	 0	 0	 1	 1.03778	 0	 225	 1	 1.08889	 0.98667;
	 20	 1	 0	 0	 0	 0	 1	 1.03778	 0	 225	 1	 1.08889	 0.98667;
	 21	 1	 0	 0	 0	 0	 1	 1.03778	 0	 225	 1	 1.08889	 0.98667;
	 22	 1	 0	 0	 0	 0	 1	 1.03778	 0	 225	 1	 1.08889	 0.98667;
	 23	 1	 89	 21.1	 0	 0	 1	 1.03778	 0	 225	 1	 1.08889	 0.98667;
	 24	 1	 156.2	 41.7	 0	 0	 1	 1.03778	 0	 225	 1	 1.08889	 0.98667;
	 25	 1	 0	 0	 0	 0	 1	 1.03778	 0	 225	 1	 1.08889	 0.98667;
	 26	 1	 0	 0	 0	 0	 1	 1.07237	 0	 380	 1	 1.10526	 1.03947;
	 27	 1	 0	 0	 0	 0	 1	 1.07237	 0	 380	 1	 1.10526	 1.03947;
	 28	 1	 28.5	 13.8	 0	 0	 1	 1.03778	 0	 225	 1	 1.08889	 0.98667;
	 29	 1	 0	 0	 0	 0	 1	 1.03778	 0	 225	 1	 1.08889	 0.98667;
	 30	 1	 0	 0	 0	 0	 1	 1.03778	 0	 225	 1	 1.08889	 0.98667;
	 31	 1	 286.9	 89.4	 0	 0	 1	 1.03778	 0	 225	 1	 1.08889	 0.98667;
	 32	 1	 46.8	 22.6	 0	 0	 1	 1.03778	 0	 225	 1	 1.08889	 0.98667;
	 33	 1	 103.5	 36	 0	 0	 1	 1.0396	 0	 225	 1	 1.09254	 0.98667;
	 34	 1	 8.5	-1.7	 0	 0	 1	 1.03778	 0	 225	 1	 1.08889	 0.98667;
	 35	 1	 8.2	 6.4	 0	 0	 1	 1.03787	 0	 225	 1	 1.08907	 0.98667;
	 36	 1	 93.8	 14.8	 0	 0	 1	 1.03778	 0	 225	 1	 1.08889	 0.98667;
	 37	 1	 0	 0	 0	 0	 1	 1.03778	 0	 225	 1	 1.08889	 0.98667;
	 38	 1	 0	 0	 0	 0	 1	 1.07237	 0	 380	 1	 1.10526	 1.03947;
	 39	 1	 0	 0	 0	 0	 1	 1.07237	 0	 380	 1	 1.10526	 1.03947;
	 40	 1	 24.6	 7.2	 0	 0	 1	 1.03778	 0	 225	 1	 1.08889	 0.98667;
	 41	 1	 0	 0	 0	 0	 1	 1.03778	 0	 225	 1	 1.08889	 0.98667;
	 42	 1	 0	 0	 0	 0	 1	 1.03778	 0	 225	 1	 1.08889	 0.98667;
	 43	 1	 0	 0	 0	 0	 1	 1.03778	 0	 225	 1	 1.08889	 0.98667;
	 44	 1	 0	 0	 0	 0	 1	 0.98889	 0	 225	 1	 1.08889	 0.88889;
	 45	 1	 0	 0	 0	 0	 1	 0.98889	 0	 225	 1	 1.08889	 0.88889;
	 46	 1	 0	 0	 0	 0	 1	 1.06579	 0	 380	 1	 1.10526	 1.02632;
	 47	 1	 0	 0	 0	 0	 1	 1.06579	 0	 380	 1	 1.10526	 1.02632;
	 48	 1	 0	 0	 0	 0	 1	 1.06579	 0	 380	 1	 1.10526	 1.02632;
	 49	 2	 0	 0	 0	 0	 1	 1	 0	 10	 1	 1.1	 0.9;
	 50	 2	 0	 0	 0	 0	 1	 1	 0	 10	 1	 1.1	 0.9;
	 51	 2	 0	 0	 0	 0	 1	 1	 0	 10	 1	 1.1	 0.9;
	 52	 2	 0	 0	 0	 0	 1	 1	 0	 8	 1	 1.1	 0.9;
	 53	 2	 0	 0	 0	 0	 1	 1	 0	 8	 1	 1.1	 0.9;
	 54	 2	 0	 0	 0	 0	 1	 1	 0	 8	 1	 1.1	 0.9;
	 55	 2	 0	 0	 0	 0	 1	 1	 0	 8	 1	 1.1	 0.9;
	 56	 2	 0	 0	 0	 0	 1	 1.00306	 0	 8	 1	 1.10611	 0.9;
	 57	 2	 0	 0	 0	 0	 1	 1.0007	 0	 8	 1	 1.10141	 0.9;
	 58	 2	 30	 12	 0	 0	 1	 0.99924	 0	 24	 1	 1.05	 0.94847;
	 59	 2	 30	 12	 0	 0	 1	 0.99898	 0	 24	 1	 1.05	 0.94796;
	 60	 2	 0	 0	 0	 0	 1	 1.00157	 0	 10	 1	 1.10313	 0.9;
	 61	 2	 0	 0	 0	 0	 1	 1	 0	 10	 1	 1.1	 0.9;
	 62	 2	 0	 0	 0	 0	 1	 1	 0	 10	 1	 1.1	 0.9;
	 63	 1	 58.8	 51.8	 0	 0	 1	 1.07237	 0	 380	 1	 1.10526	 1.03947;
	 64	 1	-177.2	-8.5	 0	 0	 1	 1.07237	 0	 380	 1	 1.10526	 1.03947;
	 65	 1	 298.2	 17.3	 0	 0	 1	 1.07237	 0	 380	 1	 1.10526	 1.03947;
	 66	 1	 71.4	 105.5	 0	 0	 1	 1.03778	 0	 225	 1	 1.08889	 0.98667;
	 67	 1	 256.4	 164.7	 0	 0	 1	 1.07237	 0	 380	 1	 1.10526	 1.03947;
	 68	 1	 109.7	 38	 0	 0	 1	 1.07237	 0	 380	 1	 1.10526	 1.03947;
];

mpc_regionR1.gen = [
%	bus         Pg          Qg          Qmax        Qmin        Vg          mBase       status      Pmax        Pmin        Pc1         Pc2         Qc1min      Qc1max      Qc2min      Qc2max      ramp_agc    ramp_10     ramp_30     ramp_q      apf         
	 4	 30	 9	 27	-9	 1.00923	 100	 1	 50	 10;
	 49	 23.93	 0.775	 19.22	-17.67	 1	 100	 1	 39.88	 7.98;
	 50	 23.93	 0.8	 19.34	-17.74	 1	 100	 1	 39.88	 7.98;
	 51	 23.93	 0.79	 19.24	-17.66	 1	 100	 1	 39.88	 7.98;
	 52	 11.99	 0.745	 20.64	-19.15	 1	 100	 1	 19.98	 4;
	 53	 14.39	 0.525	 20.43	-19.38	 1	 100	 1	 23.98	 4.8;
	 54	 14.39	 1.17	 21	-18.66	 1	 100	 1	 23.98	 4.8;
	 55	 14.39	 0.865	 20.73	-19	 1	 100	 1	 23.98	 4.8;
	 56	 14.39	 1.445	 21.26	-18.37	 1.003055	 100	 1	 23.98	 4.8;
	 57	 14.39	 1.445	 21.26	-18.37	 1.000705	 100	 1	 23.98	 4.8;
	 58	 593.5	 204.83	 501.44	-91.78	 0.9992375	 100	 1	 950	 237;
	 59	 593.5	 209.005	 505.62	-87.61	 0.9989805	 100	 1	 950	 237;
	 60	 21.57	 2.095	 19.17	-14.98	 1.001565	 100	 1	 35.95	 7.19;
	 61	 20.98	-3.94	 12.09	-19.97	 1	 100	 1	 34.97	 6.99;
	 62	 20.98	-3.94	 12.09	-19.97	 1	 100	 1	 34.97	 6.99;
];

mpc_regionR1.branch = [
%	fbus        tbus        r           x           b           rateA       rateB       rateC       ratio       angle       status      angmin      angmax      
	 6	 1	 0.001719	 0.00877	 0.0157	 321	 321	 321	 0	 0	 1	-30	 30;
	 37	 1	 0.009165	 0.04318	 0.077	 321	 321	 321	 0	 0	 1	-30	 30;
	 6	 2	 0.001397	 0.009306	 0.0172	 340	 340	 340	 0	 0	 1	-30	 30;
	 25	 2	 0.003415	 0.021827	 0.04	 325	 325	 325	 0	 0	 1	-30	 30;
	 6	 3	 0.002827	 0.011058	 0.0192	 363	 363	 363	 0	 0	 1	-30	 30;
	 25	 3	 0.002258	 0.00946	 0.0172	 363	 363	 363	 0	 0	 1	-30	 30;
	 11	 5	 0.002193	 0.010884	 0.0197	 321	 321	 321	 0	 0	 1	-30	 30;
	 37	 5	 0.004049	 0.018272	 0.0324	 302	 302	 302	 0	 0	 1	-30	 30;
	 44	 6	 0.006558	 0.029807	 0.0516	 300	 300	 300	 0	 0	 1	-30	 30;
	 11	 7	 0.00033	 0.001503	 0.002	 317	 317	 317	 0	 0	 1	-30	 30;
	 11	 8	 0.000296	 0.001349	 0.002	 317	 317	 317	 0	 0	 1	-30	 30;
	 27	 10	 7e-06	 0.000132	 0.0029	 1737	 1737	 1737	 0	 0	 1	-30	 30;
	 27	 9	 7e-06	 0.000125	 0.0029	 1737	 1737	 1737	 0	 0	 1	-30	 30;
	 14	 11	 2e-06	 0.001185	 0.001	 3507	 3507	 3507	 0	 0	 1	-30	 30;
	 28	 11	 0.00322	 0.014835	 0.0263	 388	 388	 388	 0	 0	 1	-30	 30;
	 43	 11	 0.00083	 0.00796	 0.0334	 337	 337	 337	 0	 0	 1	-30	 30;
	 13	 11	 2e-06	 0.001185	 0.001	 3507	 3507	 3507	 0	 0	 1	-30	 30;
	 12	 11	 2e-06	 0.001185	 0.001	 3507	 3507	 3507	 0	 0	 1	-30	 30;
	 44	 15	 2e-05	 0.000198	 0.001	 393	 393	 393	 0	 0	 1	-30	 30;
	 24	 16	 0.002193	 0.014716	 0.0263	 416	 416	 416	 0	 0	 1	-30	 30;
	 28	 16	 0.001323	 0.00883	 0.0162	 507	 507	 507	 0	 0	 1	-30	 30;
	 23	 19	 2e-06	 0.001185	 0	 3507	 3507	 3507	 0	 0	 1	-30	 30;
	 23	 20	 2e-06	 0.001185	 0	 3507	 3507	 3507	 0	 0	 1	-30	 30;
	 23	 17	 2e-06	 0.001185	 0	 3507	 3507	 3507	 0	 0	 1	-30	 30;
	 23	 18	 2e-06	 0.001185	 0	 3507	 3507	 3507	 0	 0	 1	-30	 30;
	 23	 22	 2e-06	 0.001244	 0	 3507	 3507	 3507	 0	 0	 1	-30	 30;
	 23	 21	 2e-06	 0.001185	 0	 3507	 3507	 3507	 0	 0	 1	-30	 30;
	 28	 23	 0.002449	 0.011141	 0.0203	 293	 293	 293	 0	 0	 1	-30	 30;
	 37	 23	 0.000672	 0.003141	 0.0051	 331	 331	 331	 0	 0	 1	-30	 30;
	 37	 24	 0.002726	 0.018193	 0.0334	 434	 434	 434	 0	 0	 1	-30	 30;
	 40	 24	 0.002596	 0.01165	 0.0203	 326	 326	 326	 0	 0	 1	-30	 30;
	 31	 25	 0.012496	 0.043621	 0.0734	 304	 304	 304	 0	 0	 1	-30	 30;
	 32	 25	 0.018805	 0.069215	 0.1235	 432	 432	 432	 0	 0	 1	-30	 30;
	 33	 25	 0.012306	 0.062598	 0.1109	 325	 325	 325	 0	 0	 1	-30	 30;
	 31	 25	 0.00717	 0.042726	 0.0749	 314	 314	 314	 0	 0	 1	-30	 30;
	 38	 26	 0.001627	 0.017031	 0.3812	 1579	 1579	 1579	 0	 0	 1	-30	 30;
	 39	 27	 0.0009	 0.007479	 0.0982	 1579	 1579	 1579	 0	 0	 1	-30	 30;
	 38	 27	 0.0009	 0.00741	 0.13	 1579	 1579	 1579	 0	 0	 1	-30	 30;
	 30	 28	 2e-06	 0.001185	 0	 389	 389	 389	 0	 0	 1	-30	 30;
	 29	 28	 2e-06	 0.001185	 0	 389	 389	 389	 0	 0	 1	-30	 30;
	 35	 31	 0.001058	 0.001937	 0.161	 14028	 14028	 14028	 0	 0	 1	-30	 30;
	 36	 33	 0.013274	 0.060326	 0.1043	 331	 331	 331	 0	 0	 1	-30	 30;
	 45	 34	 2e-05	 0.000198	 0.001	 440	 440	 440	 0	 0	 1	-30	 30;
	 45	 36	 0.006301	 0.028622	 0.0496	 331	 331	 331	 0	 0	 1	-30	 30;
	 44	 37	 0.003121	 0.014183	 0.0243	 331	 331	 331	 0	 0	 1	-30	 30;
	 43	 42	 2e-06	 0.001185	 0	 26121	 26121	 26121	 0	 0	 1	-30	 30;
	 43	 41	 2e-06	 0.001185	 0	 26121	 26121	 26121	 0	 0	 1	-30	 30;
	 4	 5	 0.007664	 0.250785	 0	 123	 123	 123	 1	 0	 1	-30	 30;
	 4	 5	 0.007664	 0.250785	 0	 123	 123	 123	 1	 0	 1	-30	 30;
	 4	 5	 0.007664	 0.250785	 0	 123	 123	 123	 1	 0	 1	-30	 30;
	 25	 26	 0.000665	 0.043075	 0	 600	 600	 600	 1.005027	 0	 1	-30	 30;
	 25	 26	 0.000672	 0.04356	 0	 600	 600	 600	 1.005027	 0	 1	-30	 30;
	 46	 25	 0.000554	-0.004224	 0	 600	 600	 600	 1	 0	 1	-30	 30;
	 26	 46	 0.000118	 0.047576	 0	 600	 600	 600	 0	 0	 1	-30	 30;
	 37	 39	 0.001177	 0.042382	 0	 600	 600	 600	 1	 0	 1	-30	 30;
	 47	 37	 0.000499	-0.006925	 0	 600	 600	 600	 1	 0	 1	-30	 30;
	 48	 37	 0.000353	-0.010873	 0	 600	 600	 600	 1	 0	 1	-30	 30;
	 39	 47	 0.000201	 0.055402	 0	 576	 576	 576	 0	 0	 1	-30	 30;
	 38	 48	 0.000429	 0.05374	 0	 594	 594	 594	 0	 0	 1	-30	 30;
	 14	 49	 0	 0.266753	 0	 118	 118	 118	 1.066667	 0	 1	-30	 30;
	 13	 50	 0	 0.266753	 0	 118	 118	 118	 1.066667	 0	 1	-30	 30;
	 12	 51	 0	 0.266753	 0	 118	 118	 118	 1.066667	 0	 1	-30	 30;
	 19	 52	 0	 0.30255	 0	 104	 104	 104	 1.022222	 0	 1	-30	 30;
	 20	 53	 0	 0.30255	 0	 104	 104	 104	 1.022222	 0	 1	-30	 30;
	 17	 54	 0	 0.30255	 0	 104	 104	 104	 1.022222	 0	 1	-30	 30;
	 18	 55	 0	 0.30255	 0	 104	 104	 104	 1.022222	 0	 1	-30	 30;
	 22	 56	 0	 0.333559	 0	 96	 96	 96	 1.022222	 0	 1	-30	 30;
	 21	 57	 0	 0.333559	 0	 95	 95	 95	 1.022222	 0	 1	-30	 30;
	 10	 58	 0	 0.012685	 0	 1221	 1221	 1221	 1.092105	 0	 1	-30	 30;
	 9	 59	 0	 0.012685	 0	 1224	 1224	 1224	 1.092105	 0	 1	-30	 30;
	 30	 60	 0	 0.287294	 0	 110	 110	 110	 1.022222	 0	 1	-30	 30;
	 42	 61	 0	 0.318049	 0	 99	 99	 99	 1.071111	 0	 1	-30	 30;
	 41	 62	 0	 0.318049	 0	 99	 99	 99	 1.071111	 0	 1	-30	 30;
	 39	 63	 0.000322	 0.003148	 0.1011	 1579	 1579	 1579	 0	 0	 1	-30	 30;
	 26	 64	 0.000544	 0.005689	 0.1249	 1253	 1253	 1253	 0	 0	 1	-30	 30;
	 39	 65	 0.000457	 0.005163	 0.1148	 1316	 1316	 1316	 0	 0	 1	-30	 30;
	 43	 66	 0.00106	 0.005879	 0.0025	 502	 502	 502	 0	 0	 1	-30	 30;
	 27	 67	 0.000264	 0.002841	 0.0505	 1974	 1974	 1974	 0	 0	 1	-30	 30;
	 38	 68	 0.000469	 0.005225	 0.1126	 1487	 1487	 1487	 0	 0	 1	-30	 30;
];

mpc_regionR1.gencost = [
%	2           startup     shutdown    n           c(n-1)...c0 
	 2	 0	 0	 3	 0	 37.644673	 0;
	 2	 0	 0	 3	 0	 24.160659	 0;
	 2	 0	 0	 3	 0	 36.024239	 0;
	 2	 0	 0	 3	 0	 34.66211	 0;
	 2	 0	 0	 3	 0	 22.006157	 0;
	 2	 0	 0	 3	 0	 120.394867	 0;
	 2	 0	 0	 3	 0	 120.197921	 0;
	 2	 0	 0	 3	 0	 38.488815	 0;
	 2	 0	 0	 3	 0	 11.142047	 0;
	 2	 0	 0	 3	 0	 22.223396	 0;
	 2	 0	 0	 3	 0	 7.610947	 0;
	 2	 0	 0	 3	 0	 9.88854	 0;
	 2	 0	 0	 3	 0	 38.629071	 0;
	 2	 0	 0	 3	 0	 37.197237	 0;
	 2	 0	 0	 3	 0	 54.733016	 0;
];


% -------------------- mpc_regionR2 --------------------

mpc_regionR2.version = '2';
mpc_regionR2.baseMVA = 100.0000;
mpc_regionR2.bus = [
%	bus_i       type        Pd          Qd          Gs          Bs          area        Vm          Va          baseKV      zone        Vmax        Vmin        
	 1	 1	 12.3	 7.1	 0	 0	 1	 1.0415	 0	 225	 1	 1.09633	 0.98667;
	 2	 1	 105.6	 22.8	 0	 0	 1	 1.03778	 0	 225	 1	 1.08889	 0.98667;
	 3	 1	 48.7	 2.9	 0	 0	 1	 0.98889	 0	 225	 1	 1.08889	 0.88889;
	 4	 1	 56.6	 23.2	 0	 0	 1	 1.03778	 0	 225	 1	 1.08889	 0.98667;
	 5	 1	 0	 0	 0	 0	 1	 1.03778	 0	 225	 1	 1.08889	 0.98667;
	 6	 1	 174.9	 55.6	 0	 0	 1	 1.03778	 0	 225	 1	 1.08889	 0.98667;
	 7	 1	 82.1	 14.7	 0	 0	 1	 1.0414	 0	 225	 1	 1.09614	 0.98667;
	 8	 1	 0	 0	 0	 0	 1	 1.07237	 0	 380	 1	 1.10526	 1.03947;
	 9	 1	 0	 0	 0	 0	 1	 1.04156	 0	 225	 1	 1.09645	 0.98667;
	 10	 1	 0	 0	 0	 0	 1	 1.04156	 0	 225	 1	 1.09645	 0.98667;
	 11	 1	 0	 0	 0	 0	 1	 1.07237	 0	 380	 1	 1.10526	 1.03947;
	 12	 1	 32	 21.4	 0	 0	 1	 1.03778	 0	 225	 1	 1.08889	 0.98667;
	 13	 1	 62.1	 16.8	 0	 0	 1	 1.04085	 0	 225	 1	 1.09504	 0.98667;
	 14	 1	-9.2	 0.5	 0	 0	 1	 1.07674	 0	 380	 1	 1.11402	 1.03947;
	 15	 1	 28.9	 24.3	 0	 0	 1	 1.07714	 0	 380	 1	 1.11482	 1.03947;
	 16	 1	 18.2	 8.4	 0	 0	 1	 1.07605	 0	 380	 1	 1.11264	 1.03947;
	 17	 1	-41.3	 6.5	 0	 0	 1	 1.07715	 0	 380	 1	 1.11483	 1.03947;
	 18	 1	 74.3	 48.9	 0	 0	 1	 1.04139	 0	 225	 1	 1.09611	 0.98667;
	 19	 1	 82.8	 19.7	 0	 0	 1	 0.98889	 0	 225	 1	 1.08889	 0.88889;
	 20	 1	 236.5	 67.4	 0	 0	 1	 1.03778	 0	 225	 1	 1.08889	 0.98667;
	 21	 1	 0	 0	 0	 0	 1	 1.07237	 0	 380	 1	 1.10526	 1.03947;
	 22	 1	 94.5	 31	 0	 0	 1	 1.04091	 0	 225	 1	 1.09515	 0.98667;
	 23	 1	 97.5	 35.1	 0	 0	 1	 0.99896	 0	 225	 1	 1.09125	 0.90667;
	 24	 1	 0	 0	 0	 0	 1	 1.04227	 0	 225	 1	 1.09787	 0.98667;
	 25	 1	 82.3	 10.5	 0	 0	 1	 1.04222	 0	 225	 1	 1.09778	 0.98667;
	 26	 1	 88.4	 16.7	 0	 0	 1	 1.03778	 0	 225	 1	 1.08889	 0.98667;
	 27	 2	 0	 0	 0	 0	 1	 1.0171	 0	 225	 1	 1.08421	 0.95;
	 28	 1	 104.8	 23.9	 0	 0	 1	 1.03778	 0	 225	 1	 1.08889	 0.98667;
	 29	 1	 0	 0	 0	 0	 1	 1.07469	 0	 380	 1	 1.10992	 1.03947;
	 30	 1	 0	 0	 0	 0	 1	 1.07469	 0	 380	 1	 1.10992	 1.03947;
	 31	 1	 0	 0	 0	 0	 1	 1.04228	 0	 225	 1	 1.0979	 0.98667;
	 32	 1	 0	 0	 0	 0	 1	 1.04228	 0	 225	 1	 1.0979	 0.98667;
	 33	 1	 115.6	 48.1	 0	 0	 1	 1.03778	 0	 225	 1	 1.08889	 0.98667;
	 34	 1	 0	 0	 0	 0	 1	 1.03778	 0	 225	 1	 1.08889	 0.98667;
	 35	 1	 0	 0	 0	 0	 1	 1.03778	 0	 225	 1	 1.08889	 0.98667;
	 36	 1	 0	 0	 0	 0	 1	 1.03778	 0	 225	 1	 1.08889	 0.98667;
	 37	 1	 0	 0	 0	 0	 1	 1.03778	 0	 225	 1	 1.08889	 0.98667;
	 38	 1	 0	 0	 0	 0	 1	 1.03778	 0	 225	 1	 1.08889	 0.98667;
	 39	 1	 0	 0	 0	 0	 1	 1.03778	 0	 225	 1	 1.08889	 0.98667;
	 40	 1	 0	 0	 0	 0	 1	 1.03778	 0	 225	 1	 1.08889	 0.98667;
	 41	 1	 0	 0	 0	 0	 1	 1.03778	 0	 225	 1	 1.08889	 0.98667;
	 42	 1	 0	 0	 0	 0	 1	 1.03778	 0	 225	 1	 1.08889	 0.98667;
	 43	 1	 0	 0	 0	 0	 1	 1.03778	 0	 225	 1	 1.08889	 0.98667;
	 44	 1	 0	 0	 0	 0	 1	 1.03778	 0	 225	 1	 1.08889	 0.98667;
	 45	 1	 0	 0	 0	 0	 1	 1.03778	 0	 225	 1	 1.08889	 0.98667;
	 46	 1	-1.1	 26.1	 0	 0	 1	 1.03778	 0	 225	 1	 1.08889	 0.98667;
	 47	 1	 186.3	 34.8	 0	 0	 1	 1.03778	 0	 225	 1	 1.08889	 0.98667;
	 48	 1	 116.9	 24.2	 0	 0	 1	 1.03778	 0	 225	 1	 1.08889	 0.98667;
	 49	 1	 69.6	 37.6	 0	 0	 1	 1.03778	 0	 225	 1	 1.08889	 0.98667;
	 50	 1	 69.6	 43.4	 0	 0	 1	 1.03778	 0	 225	 1	 1.08889	 0.98667;
	 51	 1	 77.7	 15.3	 0	 0	 1	 1.03778	 0	 225	 1	 1.08889	 0.98667;
	 52	 1	 0	 0	 0	 0	 1	 1.07237	 0	 380	 1	 1.10526	 1.03947;
	 53	 1	-0	 0	 0	 0	 1	 1.04008	 0	 225	 1	 1.09349	 0.98667;
	 54	 1	 67.6	 15.2	 0	 0	 1	 1.03778	 0	 225	 1	 1.08889	 0.98667;
	 55	 1	 40.3	 11.9	 0	 0	 1	 1.03942	 0	 225	 1	 1.09218	 0.98667;
	 56	 1	 309.3	 77.7	 0	 0	 1	 1.03778	 0	 225	 1	 1.08889	 0.98667;
	 57	 1	 224.3	 50.8	 0	 0	 1	 1.03778	 0	 225	 1	 1.08889	 0.98667;
	 58	 1	 0	 0	 0	 0	 1	 1.07237	 0	 380	 1	 1.10526	 1.03947;
	 59	 1	 68	 15.2	 0	 0	 1	 1.02889	 0	 225	 1	 1.08889	 0.96889;
	 60	 1	 0	 0	 0	 0	 1	 1.03778	 0	 225	 1	 1.08889	 0.98667;
	 61	 1	 0	 0	 0	 0	 1	 1.03778	 0	 225	 1	 1.08889	 0.98667;
	 62	 1	 0	 0	 0	 0	 1	 1.07237	 0	 380	 1	 1.10526	 1.03947;
	 63	 1	 43.2	 1.1	 0	 0	 1	 1.03855	 0	 225	 1	 1.09044	 0.98667;
	 64	 1	 0	 0	 0	 0	 1	 1.03961	 0	 225	 1	 1.09255	 0.98667;
	 65	 1	 0	 0	 0	 0	 1	 1.03961	 0	 225	 1	 1.09255	 0.98667;
	 66	 1	 0	 0	 0	 0	 1	 0.99009	 0	 225	 1	 1.0913	 0.88889;
	 67	 1	 71.5	 14.8	 0	 0	 1	 0.98889	 0	 225	 1	 1.08889	 0.88889;
	 68	 1	 72	 14.6	 0	 0	 1	 0.98889	 0	 225	 1	 1.08889	 0.88889;
	 69	 1	 82.1	 27.3	 0	 0	 1	 1.03778	 0	 225	 1	 1.08889	 0.98667;
	 70	 1	 81.5	 38.4	 0	 0	 1	 1.03778	 0	 225	 1	 1.08889	 0.98667;
	 71	 1	 98.9	 21.8	 0	 0	 1	 1.03867	 0	 225	 1	 1.09068	 0.98667;
	 72	 1	 0	 0	 0	 0	 1	 1.07237	 0	 380	 1	 1.10526	 1.03947;
	 73	 1	 92.2	 24.1	 0	 0	 1	 1.04073	 0	 225	 1	 1.0948	 0.98667;
	 74	 1	 2	-1.7	 0	 0	 1	 1.01811	 0	 225	 1	 1.08623	 0.95;
	 75	 1	 0	 0	 0	 0	 1	 1.03778	 0	 225	 1	 1.08889	 0.98667;
	 76	 1	 0	 0	 0	 0	 1	 1.03778	 0	 225	 1	 1.08889	 0.98667;
	 77	 1	 0	 0	 0	 0	 1	 1.03778	 0	 225	 1	 1.08889	 0.98667;
	 78	 1	 30.5	 1	 0	 0	 1	 1.01893	 0	 225	 1	 1.08787	 0.95;
	 79	 1	 158.1	 107.7	 0	 0	 1	 1.07237	 0	 380	 1	 1.10526	 1.03947;
	 80	 1	 0	 0	 0	 0	 1	 1.04153	 0	 225	 1	 1.09639	 0.98667;
	 81	 1	 0	-4.4	 0	 0	 1	 1.03949	 0	 225	 1	 1.09232	 0.98667;
	 82	 1	 44.5	-6.1	 0	 0	 1	 0.95	 0	 150	 1	 1.1	 0.8;
	 83	 1	 133	 127.2	 0	 0	 1	 1.03778	 0	 225	 1	 1.08889	 0.98667;
	 84	 1	 47.7	 18.5	 0	 0	 1	 1.03924	 0	 225	 1	 1.09182	 0.98667;
	 85	 1	 72	 22.6	 0	 0	 1	 0.98957	 0	 225	 1	 1.09025	 0.88889;
	 86	 1	 169.8	 168.8	 0	 0	 1	 1.03778	 0	 225	 1	 1.08889	 0.98667;
	 87	 1	 9.5	 4.8	 0	 0	 1	 1.04091	 0	 225	 1	 1.09515	 0.98667;
	 88	 1	 143.8	 18.8	 0	 0	 1	 1.04103	 0	 225	 1	 1.09539	 0.98667;
	 89	 1	 0	 0	 0	 0	 1	 1.07092	 0	 380	 1	 1.10526	 1.03658;
	 90	 1	 33.3	-13.8	 0	 0	 1	 1.03778	 0	 225	 1	 1.08889	 0.98667;
	 91	 1	 0	 0	 0	 0	 1	 1.03778	 0	 225	 1	 1.08889	 0.98667;
	 92	 1	 0	 0	 0	 0	 1	 1.03778	 0	 225	 1	 1.08889	 0.98667;
	 93	 1	 0	 0	 0	 0	 1	 1.03778	 0	 225	 1	 1.08889	 0.98667;
	 94	 1	 0	 0	 0	 0	 1	 1.03778	 0	 225	 1	 1.08889	 0.98667;
	 95	 1	 55.6	 23.8	 0	 0	 1	 1.0417	 0	 225	 1	 1.09673	 0.98667;
	 96	 1	 71.2	 1.5	 0	 0	 1	 1.03778	 0	 225	 1	 1.08889	 0.98667;
	 97	 1	-11.8	-24.5	 0	 0	 1	 1.03972	 0	 225	 1	 1.09277	 0.98667;
	 98	 1	 83	 43.8	 0	 0	 1	 1.03778	 0	 225	 1	 1.08889	 0.98667;
	 99	 1	 17.1	 8.8	 0	 0	 1	 1.03778	 0	 225	 1	 1.08889	 0.98667;
	 100	 1	 0	 0	 0	 0	 1	 1.03778	 0	 225	 1	 1.08889	 0.98667;
	 101	 1	 0	 0	 0	 0	 1	 1.07237	 0	 380	 1	 1.10526	 1.03947;
	 102	 1	 78.2	 28.4	 0	 0	 1	 1.03778	 0	 225	 1	 1.08889	 0.98667;
	 103	 1	 14.1	-0.6	 0	 0	 1	 1.03778	 0	 225	 1	 1.08889	 0.98667;
	 104	 1	 223.4	 43.4	 0	 0	 1	 1.04198	 0	 225	 1	 1.0973	 0.98667;
	 105	 1	 0	 0	 0	 0	 1	 1.07458	 0	 380	 1	 1.10969	 1.03947;
	 106	 1	 91.8	 41.3	 0	 0	 1	 1.04093	 0	 225	 1	 1.0952	 0.98667;
	 107	 1	 118.4	 36.3	 0	 0	 1	 1.04093	 0	 225	 1	 1.0952	 0.98667;
	 108	 1	 252.2	 102.9	 0	 0	 1	 1.03961	 0	 225	 1	 1.09255	 0.98667;
	 109	 1	 117.9	 18.9	 0	 0	 1	 1.03799	 0	 225	 1	 1.08931	 0.98667;
	 110	 1	 74.1	-4.4	 0	 0	 1	 1.02889	 0	 225	 1	 1.08889	 0.96889;
	 111	 1	 0	 0	 0	 0	 1	 1.03778	 0	 225	 1	 1.08889	 0.98667;
	 112	 1	 0	 0	 0	 0	 1	 1.03778	 0	 225	 1	 1.08889	 0.98667;
	 113	 1	 0	 0	 0	 0	 1	 1.03778	 0	 225	 1	 1.08889	 0.98667;
	 114	 1	 0	 0	 0	 0	 1	 1.03778	 0	 225	 1	 1.08889	 0.98667;
	 115	 1	 0	 0	 0	 0	 1	 1.03778	 0	 225	 1	 1.08889	 0.98667;
	 116	 1	 7.8	-0.6	 0	 0	 1	 1.03887	 0	 225	 1	 1.09108	 0.98667;
	 117	 1	 9	-4.4	 0	 0	 1	 1.0411	 0	 225	 1	 1.09553	 0.98667;
	 118	 1	 72.8	 14.2	 0	 0	 1	 1.04091	 0	 225	 1	 1.09515	 0.98667;
	 119	 1	 0	 0	 0	 0	 1	 1.03983	 0	 225	 1	 1.09299	 0.98667;
	 120	 1	 0	 0	 0	 0	 1	 1.07237	 0	 380	 1	 1.10526	 1.03947;
	 121	 1	 0	 0	 0	 0	 1	 1.07237	 0	 380	 1	 1.10526	 1.03947;
	 122	 1	 0	 0	 0	 0	 1	 1	 0	 150	 1	 1.1	 0.9;
	 123	 1	 121.1	 18.5	 0	 0	 1	 1.03778	 0	 225	 1	 1.08889	 0.98667;
	 124	 1	 0	 0	 0	 0	 1	 1.07237	 0	 380	 1	 1.10526	 1.03947;
	 125	 1	 76.2	 10.9	 0	 0	 1	 1.03778	 0	 225	 1	 1.08889	 0.98667;
	 126	 1	 0	 0	 0	 0	 1	 1.03778	 0	 225	 1	 1.08889	 0.98667;
	 127	 1	 74.9	 11.4	 0	 0	 1	 1.03778	 0	 225	 1	 1.08889	 0.98667;
	 128	 1	 68.5	 21.7	 0	 0	 1	 1.04356	 0	 225	 1	 1.10045	 0.98667;
	 129	 1	 0	 0	 0	 0	 1	 0.98889	 0	 225	 1	 1.08889	 0.88889;
	 130	 1	 0	 0	 0	 0	 1	 0.99224	 0	 225	 1	 1.09559	 0.88889;
	 131	 1	 0	 0	 0	 0	 1	 0.99333	 0	 225	 1	 1.13333	 0.85333;
	 132	 1	 0	 0	 0	 0	 1	 0.98889	 0	 225	 1	 1.08889	 0.88889;
	 133	 1	 0	 0	 0	 0	 1	 0.9913	 0	 225	 1	 1.09372	 0.88889;
	 134	 1	 0	 0	 0	 0	 1	 0.98889	 0	 225	 1	 1.08889	 0.88889;
	 135	 1	 0	 0	 0	 0	 1	 0.99119	 0	 225	 1	 1.0935	 0.88889;
	 136	 1	 0	 0	 0	 0	 1	 0.98889	 0	 225	 1	 1.08889	 0.88889;
	 137	 1	 0	 0	 0	 0	 1	 0.98889	 0	 225	 1	 1.08889	 0.88889;
	 138	 1	 0	 0	 0	 0	 1	 0.98924	 0	 225	 1	 1.0896	 0.88889;
	 139	 1	 0	 0	 0	 0	 1	 0.99155	 0	 225	 1	 1.09422	 0.88889;
	 140	 1	 0	 0	 0	 0	 1	 0.98889	 0	 225	 1	 1.08889	 0.88889;
	 141	 1	 0	 0	 0	 0	 1	 0.98889	 0	 225	 1	 1.08889	 0.88889;
	 142	 1	 0	 0	 0	 0	 1	 0.98889	 0	 225	 1	 1.08889	 0.88889;
	 143	 1	 0	 0	 0	 0	 1	 1.06579	 0	 380	 1	 1.10526	 1.02632;
	 144	 1	 0	 0	 0	 0	 1	 1.06579	 0	 380	 1	 1.10526	 1.02632;
	 145	 2	 5.8	 4	 0	 0	 1	 1	 0	 20	 1	 1.05	 0.95;
	 146	 2	 14	 11	 0	 0	 1	 1	 0	 20	 1	 1.05	 0.95;
	 147	 2	 7.4	 5.8	 0	 0	 1	 1	 0	 20	 1	 1.05	 0.95;
	 148	 2	 14	 10.5	 0	 0	 1	 1	 0	 17	 1	 1.05	 0.95;
	 149	 2	 0	 0	 0	 0	 1	 1.00373	 0	 15	 1	 1.05747	 0.95;
	 150	 2	 0	 0	 0	 0	 1	 0.99649	 0	 20	 1	 1.05	 0.94298;
	 151	 2	 0	 0	 0	 0	 1	 1	 0	 20	 1	 1.05	 0.95;
	 152	 2	 0	 0	 0	 0	 1	 0.99502	 0	 20	 1	 1.05	 0.94004;
	 153	 2	 0	 0	 0	 0	 1	 0.99328	 0	 20	 1	 1.05	 0.93655;
	 154	 2	 11.1	 8.3	 0	 0	 1	 1.01132	 0	 19	 1	 1.07264	 0.95;
	 155	 2	 0	 0	 0	 0	 1	 1	 0	 3	 1	 1.1	 0.9;
	 156	 2	 0	 0	 0	 0	 1	 1	 0	 3	 1	 1.1	 0.9;
	 157	 2	 0	 0	 0	 0	 1	 1	 0	 3	 1	 1.1	 0.9;
	 158	 2	 0	 0	 0	 0	 1	 1	 0	 3	 1	 1.1	 0.9;
	 159	 2	 0	 0	 0	 0	 1	 1	 0	 3	 1	 1.1	 0.9;
	 160	 2	 0	 0	 0	 0	 1	 1	 0	 3	 1	 1.1	 0.9;
	 161	 2	 0	 0	 0	 0	 1	 1	 0	 3	 1	 1.1	 0.9;
	 162	 2	 0	 0	 0	 0	 1	 1	 0	 3	 1	 1.1	 0.9;
	 163	 2	 0	 0	 0	 0	 1	 1	 0	 3	 1	 1.1	 0.9;
	 164	 2	 14	 8	 0	 0	 1	 1	 0	 20	 1	 1.05	 0.95;
	 165	 2	 14	 8	 0	 0	 1	 1	 0	 20	 1	 1.05	 0.95;
	 166	 2	 0	 0	 0	 0	 1	 1	 0	 10	 1	 1.1	 0.9;
	 167	 2	 0	 0	 0	 0	 1	 1	 0	 10	 1	 1.1	 0.9;
	 168	 2	 0	 0	 0	 0	 1	 1	 0	 10	 1	 1.1	 0.9;
	 169	 2	 0	 0	 0	 0	 1	 1	 0	 10	 1	 1.1	 0.9;
	 170	 2	 0	 0	 0	 0	 1	 1	 0	 10	 1	 1.1	 0.9;
	 171	 2	 0	 0	 0	 0	 1	 1	 0	 10	 1	 1.1	 0.9;
	 172	 2	 0	 0	 0	 0	 1	 1	 0	 20	 1	 1.05	 0.95;
	 173	 2	 14.5	 0	 0	 0	 1	 0.99851	 0	 20	 1	 1.05	 0.94701;
	 174	 2	 9.8	 5.6	 0	 0	 1	 0.99716	 0	 19	 1	 1.05	 0.94432;
	 175	 2	 9.8	 5.6	 0	 0	 1	 0.99442	 0	 19	 1	 1.05	 0.93884;
	 176	 2	 0	 0	 0	 0	 1	 1.0106	 0	 3	 1	 1.1212	 0.9;
	 177	 2	 0	 0	 0	 0	 1	 1.01086	 0	 3	 1	 1.12172	 0.9;
	 178	 2	 0	 0	 0	 0	 1	 1.01077	 0	 3	 1	 1.12155	 0.9;
	 179	 2	 0	 0	 0	 0	 1	 1.01072	 0	 3	 1	 1.12143	 0.9;
	 180	 2	 0	 0	 0	 0	 1	 1	 0	 10	 1	 1.1	 0.9;
	 181	 1	 89.4	 63.1	 0	 0	 1	 1.03867	 0	 225	 1	 1.09068	 0.98667;
	 182	 1	 74.6	 61.4	 0	 0	 1	 1.01893	 0	 225	 1	 1.08787	 0.95;
	 183	 1	 0	-3	 0	 0	 1	 1.04198	 0	 225	 1	 1.0973	 0.98667;
	 184	 1	-269.4	 80.8	 0	 0	 1	 1.07237	 0	 380	 1	 1.10526	 1.03947;
	 185	 1	 91.8	 111	 0	 0	 1	 1.07237	 0	 380	 1	 1.10526	 1.03947;
	 186	 1	 136.4	 24.6	 0	 0	 1	 0.98889	 0	 225	 1	 1.08889	 0.88889;
];

mpc_regionR2.gen = [
%	bus         Pg          Qg          Qmax        Qmin        Vg          mBase       status      Pmax        Pmin        Pc1         Pc2         Qc1min      Qc1max      Qc2min      Qc2max      ramp_agc    ramp_10     ramp_30     ramp_q      apf         
	 78	 4.8	 0	 0	 0	 1.018935	 100	 1	 8	 1.6;
	 78	 4.8	 0	 0	 0	 1.018935	 100	 1	 8	 1.6;
	 74	 32.4	 0	 0	 0	 1.018115	 100	 1	 54	 10.8;
	 27	 46.8	 0.5	 1	 0	 1.017105	 100	 1	 78	 15.6;
	 145	 204	 31.4	 153.03	-90.23	 1	 100	 1	 252	 156;
	 146	 202	 30.815	 152.44	-90.81	 1	 100	 1	 250	 154;
	 147	 202	 23.7	 105.68	-58.28	 1	 100	 1	 250	 154;
	 148	 213.5	 34.45	 228.81	-159.91	 1	 100	 1	 305	 122;
	 149	 122	 9.84	 94.32	-74.64	 1.003735	 100	 1	 155	 89;
	 150	 833.5	 235.585	 656.06	-184.89	 0.996488	 100	 1	 1330	 337;
	 151	 913.5	 93.895	 515.51	-327.72	 1	 100	 1	 1360	 467;
	 152	 863.5	 236.51	 656.92	-183.9	 0.995021	 100	 1	 1360	 367;
	 153	 863.5	 227.615	 648.03	-192.8	 0.993275	 100	 1	 1360	 367;
	 154	 341.3	 37.96	 258.1	-182.18	 1.01132	 100	 1	 433.8	 248.8;
	 155	 14.4	 1.39	 5.35	-2.57	 1	 100	 1	 24	 4.8;
	 156	 14.4	 1.525	 5.48	-2.43	 1	 100	 1	 24	 4.8;
	 157	 14.4	 1.035	 5	-2.93	 1	 100	 1	 24	 4.8;
	 158	 14.4	 1.33	 5.29	-2.63	 1	 100	 1	 24	 4.8;
	 159	 14.395	 2.51	 10	-4.98	 1	 100	 1	 23.99	 4.8;
	 160	 14.395	 2.685	 10.17	-4.8	 1	 100	 1	 23.99	 4.8;
	 161	 14.395	 2.765	 10.25	-4.72	 1	 100	 1	 23.99	 4.8;
	 162	 14.395	 1.805	 1.81	 1.8	 1	 100	 1	 23.99	 4.8;
	 163	 14.395	 2.675	 10.16	-4.81	 1	 100	 1	 23.99	 4.8;
	 164	 193.5	 68.385	 158.82	-22.05	 1	 100	 1	 250	 137;
	 165	 193.5	 66.855	 157.29	-23.58	 1	 100	 1	 250	 137;
	 166	 22.705	 0.09	 19.48	-19.3	 1	 100	 1	 37.84	 7.57;
	 167	 22.705	 0.64	 19.6	-18.32	 1	 100	 1	 37.84	 7.57;
	 168	 22.71	 0.285	 19.12	-18.55	 1	 100	 1	 37.85	 7.57;
	 169	 22.59	 1.605	 11.32	-8.11	 1	 100	 1	 37.65	 7.53;
	 170	 22.59	 1.545	 11.25	-8.16	 1	 100	 1	 37.65	 7.53;
	 171	 22.585	 1.425	 11.12	-8.27	 1	 100	 1	 37.64	 7.53;
	 172	 217.5	 89.165	 164.14	 14.19	 1	 100	 1	 285	 150;
	 173	 410	 37.3	 221.3	-146.7	 0.9985055	 100	 1	 595	 225;
	 174	 285	 59.22	 89.22	 29.22	 0.997161	 100	 1	 443	 127;
	 175	 285	 67.27	 97.27	 37.27	 0.9944205	 100	 1	 443	 127;
	 176	 14.215	 3.59	 8.62	-1.44	 1.0106	 100	 1	 23.69	 4.74;
	 177	 14.215	 3.59	 8.62	-1.44	 1.01086	 100	 1	 23.69	 4.74;
	 178	 14.215	 3.59	 8.62	-1.44	 1.010775	 100	 1	 23.69	 4.74;
	 179	 14.215	 3.515	 8.55	-1.52	 1.010715	 100	 1	 23.69	 4.74;
	 180	 20.975	-3.96	 12.08	-20	 1	 100	 1	 34.96	 6.99;
];

mpc_regionR2.branch = [
%	fbus        tbus        r           x           b           rateA       rateB       rateC       ratio       angle       status      angmin      angmax      
	 73	 1	 0.003477	 0.01118	 0.0187	 304	 304	 304	 0	 0	 1	-30	 30;
	 95	 1	 0.000612	 0.003121	 0.0152	 270	 270	 270	 0	 0	 1	-30	 30;
	 28	 2	 0.005709	 0.037926	 0.0688	 492	 492	 492	 0	 0	 1	-30	 30;
	 136	 2	 0.001758	 0.011654	 0.0208	 492	 492	 492	 0	 0	 1	-30	 30;
	 59	 3	 0.000573	 0.002588	 0.0051	 388	 388	 388	 0	 0	 1	-30	 30;
	 129	 4	 0.000593	 0.00401	 0.0071	 471	 471	 471	 0	 0	 1	-30	 30;
	 38	 5	 0.002487	 0.016492	 0.0304	 434	 434	 434	 0	 0	 1	-30	 30;
	 50	 5	 0.000873	 0.003563	 0.004	 370	 370	 370	 0	 0	 1	-30	 30;
	 61	 5	 0.003563	 0.023682	 0.044	 507	 507	 507	 0	 0	 1	-30	 30;
	 86	 5	 0.002724	 0.018108	 0.0334	 383	 383	 383	 0	 0	 1	-30	 30;
	 49	 5	 0.000873	 0.003563	 0.004	 370	 370	 370	 0	 0	 1	-30	 30;
	 61	 6	 0.001521	 0.021728	 0.0871	 831	 831	 831	 0	 0	 1	-30	 30;
	 140	 6	 0.001304	 0.017205	 0.0729	 935	 935	 935	 0	 0	 1	-30	 30;
	 22	 7	 0.001501	 0.010015	 0.0182	 540	 540	 540	 0	 0	 1	-30	 30;
	 25	 7	 0.003103	 0.021146	 0.04	 540	 540	 540	 0	 0	 1	-30	 30;
	 118	 7	 0.00162	 0.010765	 0.0203	 540	 540	 540	 0	 0	 1	-30	 30;
	 139	 7	 0.001807	 0.017201	 0.0618	 540	 540	 540	 0	 0	 1	-30	 30;
	 10	 7	 0.000217	 0.001442	 0.003	 545	 545	 545	 0	 0	 1	-30	 30;
	 118	 7	 0.00162	 0.010726	 0.0203	 535	 535	 535	 0	 0	 1	-30	 30;
	 9	 7	 0.000119	 0.001086	 0.004	 545	 545	 545	 0	 0	 1	-30	 30;
	 52	 8	 0.00072	 0.009453	 0.3263	 2487	 2487	 2487	 0	 0	 1	-30	 30;
	 62	 8	 0.003206	 0.03536	 0.9025	 899	 899	 899	 0	 0	 1	-30	 30;
	 120	 8	 0.000616	 0.008054	 0.2772	 2487	 2487	 2487	 0	 0	 1	-30	 30;
	 52	 8	 0.000713	 0.009384	 0.3235	 2487	 2487	 2487	 0	 0	 1	-30	 30;
	 121	 8	 0.000616	 0.008061	 0.2772	 2487	 2487	 2487	 0	 0	 1	-30	 30;
	 11	 8	 3.5e-05	 0.000374	 0.0087	 921	 921	 921	 0	 0	 1	-30	 30;
	 60	 12	 0.000257	 0.001758	 0.003	 507	 507	 507	 0	 0	 1	-30	 30;
	 91	 12	 0.00162	 0.011121	 0.0213	 408	 408	 408	 0	 0	 1	-30	 30;
	 130	 13	 0.000614	 0.004093	 0.0278	 507	 507	 507	 0	 0	 1	-30	 30;
	 120	 14	 0.000286	 0.004868	 0.1762	 2487	 2487	 2487	 0	 0	 1	-30	 30;
	 120	 15	 0.000287	 0.004892	 0.1776	 2487	 2487	 2487	 0	 0	 1	-30	 30;
	 121	 16	 0.000283	 0.004814	 0.1762	 2487	 2487	 2487	 0	 0	 1	-30	 30;
	 121	 17	 0.000285	 0.004843	 0.1733	 2487	 2487	 2487	 0	 0	 1	-30	 30;
	 88	 18	 0.001936	 0.012879	 0.0243	 535	 535	 535	 0	 0	 1	-30	 30;
	 66	 19	 0.001679	 0.017284	 0.0582	 507	 507	 507	 0	 0	 1	-30	 30;
	 66	 19	 0.001501	 0.018568	 0.0562	 388	 388	 388	 0	 0	 1	-30	 30;
	 33	 20	 0.013472	 0.067378	 0.1215	 413	 413	 413	 0	 0	 1	-30	 30;
	 96	 20	 0.004563	 0.02448	 0.0425	 413	 413	 413	 0	 0	 1	-30	 30;
	 129	 20	 0.010627	 0.045511	 0.0749	 302	 302	 302	 0	 0	 1	-30	 30;
	 138	 20	 0.009798	 0.045748	 0.0815	 337	 337	 337	 0	 0	 1	-30	 30;
	 89	 21	 0.001797	 0.019272	 0.4216	 1648	 1648	 1648	 0	 0	 1	-30	 30;
	 85	 23	 0.00316	 0.021017	 0.0375	 528	 528	 528	 0	 0	 1	-30	 30;
	 88	 23	 0.004612	 0.030706	 0.0547	 524	 524	 524	 0	 0	 1	-30	 30;
	 25	 24	 2e-05	 9.8e-05	 0.0111	 314576	 314576	 314576	 0	 0	 1	-30	 30;
	 56	 25	 0.00561	 0.030894	 0.0567	 413	 413	 413	 0	 0	 1	-30	 30;
	 128	 25	 0.003812	 0.025383	 0.0471	 540	 540	 540	 0	 0	 1	-30	 30;
	 61	 26	 0.002359	 0.016431	 0.0203	 319	 319	 319	 0	 0	 1	-30	 30;
	 132	 27	 1.3e-05	 9.9e-05	 0.001	 540	 540	 540	 0	 0	 1	-30	 30;
	 142	 28	 0.005294	 0.036464	 0.0618	 492	 492	 492	 0	 0	 1	-30	 30;
	 105	 29	 4.8e-05	 8.8e-05	 0.1993	 320795	 320795	 320795	 0	 0	 1	-30	 30;
	 105	 30	 4.8e-05	 8.8e-05	 0.1993	 320795	 320795	 320795	 0	 0	 1	-30	 30;
	 104	 31	 4.8e-05	 8.8e-05	 0.001	 313831	 313831	 313831	 0	 0	 1	-30	 30;
	 104	 32	 4.8e-05	 8.8e-05	 0.001	 313831	 313831	 313831	 0	 0	 1	-30	 30;
	 132	 33	 0.003832	 0.019733	 0.0359	 413	 413	 413	 0	 0	 1	-30	 30;
	 38	 34	 2e-06	 0.001185	 0.001	 3507	 3507	 3507	 0	 0	 1	-30	 30;
	 38	 35	 2e-06	 0.001185	 0.001	 3507	 3507	 3507	 0	 0	 1	-30	 30;
	 38	 36	 2e-06	 0.001185	 0.001	 3507	 3507	 3507	 0	 0	 1	-30	 30;
	 38	 37	 2e-06	 0.001185	 0.001	 3507	 3507	 3507	 0	 0	 1	-30	 30;
	 102	 38	 0.00381	 0.02541	 0.0471	 507	 507	 507	 0	 0	 1	-30	 30;
	 45	 44	 2e-06	 0.001185	 0.001	 3507	 3507	 3507	 0	 0	 1	-30	 30;
	 45	 42	 2e-06	 0.001185	 0.001	 3507	 3507	 3507	 0	 0	 1	-30	 30;
	 45	 41	 2e-06	 0.001185	 0.001	 3507	 3507	 3507	 0	 0	 1	-30	 30;
	 45	 39	 2e-06	 0.001185	 0.001	 3507	 3507	 3507	 0	 0	 1	-30	 30;
	 45	 40	 2e-06	 0.001185	 0.001	 3507	 3507	 3507	 0	 0	 1	-30	 30;
	 45	 43	 2e-06	 0.001185	 0.001	 3507	 3507	 3507	 0	 0	 1	-30	 30;
	 91	 45	 0.00164	 0.011299	 0.0213	 507	 507	 507	 0	 0	 1	-30	 30;
	 115	 45	 0.002647	 0.018035	 0.0334	 408	 408	 408	 0	 0	 1	-30	 30;
	 134	 46	 0.000296	 0.001936	 0.0137	 507	 507	 507	 0	 0	 1	-30	 30;
	 51	 47	 0.000942	 0.004946	 0.0182	 6148	 6148	 6148	 0	 0	 1	-30	 30;
	 60	 47	 0.008533	 0.038716	 0.0678	 333	 333	 333	 0	 0	 1	-30	 30;
	 61	 47	 0.002977	 0.014748	 0.0263	 388	 388	 388	 0	 0	 1	-30	 30;
	 86	 47	 0.002483	 0.016496	 0.0304	 507	 507	 507	 0	 0	 1	-30	 30;
	 100	 47	 0.004188	 0.019082	 0.0334	 333	 333	 333	 0	 0	 1	-30	 30;
	 103	 47	 0.001742	 0.01171	 0.038	 457	 457	 457	 0	 0	 1	-30	 30;
	 115	 47	 0.001414	 0.009527	 0.0172	 507	 507	 507	 0	 0	 1	-30	 30;
	 57	 48	 0.003401	 0.022763	 0.0415	 492	 492	 492	 0	 0	 1	-30	 30;
	 127	 48	 0.004122	 0.027542	 0.0501	 492	 492	 492	 0	 0	 1	-30	 30;
	 58	 52	 0.00214	 0.024723	 0.5545	 1286	 1286	 1286	 0	 0	 1	-30	 30;
	 79	 52	 0.000229	 0.002465	 0.0549	 1487	 1487	 1487	 0	 0	 1	-30	 30;
	 124	 52	 0.000561	 0.006198	 0.1473	 1731	 1731	 1731	 0	 0	 1	-30	 30;
	 135	 53	 0.000233	 0.00156	 0.003	 507	 507	 507	 0	 0	 1	-30	 30;
	 134	 54	 0.000691	 0.004563	 0.0081	 507	 507	 507	 0	 0	 1	-30	 30;
	 71	 55	 0.00239	 0.015842	 0.0284	 492	 492	 492	 0	 0	 1	-30	 30;
	 73	 55	 0.002765	 0.018548	 0.0344	 507	 507	 507	 0	 0	 1	-30	 30;
	 110	 55	 0.005539	 0.038098	 0.0719	 507	 507	 507	 0	 0	 1	-30	 30;
	 119	 55	 0.005116	 0.034252	 0.0628	 492	 492	 492	 0	 0	 1	-30	 30;
	 135	 55	 0.004306	 0.019919	 0.0354	 388	 388	 388	 0	 0	 1	-30	 30;
	 116	 56	 0.007802	 0.036069	 0.0633	 388	 388	 388	 0	 0	 1	-30	 30;
	 137	 56	 0.000257	 0.00164	 0.003	 524	 524	 524	 0	 0	 1	-30	 30;
	 141	 56	 0.005077	 0.023921	 0.0425	 388	 388	 388	 0	 0	 1	-30	 30;
	 136	 57	 0.001932	 0.012802	 0.0233	 477	 477	 477	 0	 0	 1	-30	 30;
	 66	 59	 0.003826	 0.018665	 0.0334	 388	 388	 388	 0	 0	 1	-30	 30;
	 67	 59	 0.00077	 0.003536	 0.0066	 330	 330	 330	 0	 0	 1	-30	 30;
	 110	 59	 0.005037	 0.034785	 0.0653	 507	 507	 507	 0	 0	 1	-30	 30;
	 66	 59	 0.003615	 0.01762	 0.0314	 388	 388	 388	 0	 0	 1	-30	 30;
	 68	 59	 0.000711	 0.004583	 0.0081	 270	 270	 270	 0	 0	 1	-30	 30;
	 77	 60	 2e-06	 0.001185	 0	 3507	 3507	 3507	 0	 0	 1	-30	 30;
	 100	 60	 0.004326	 0.019694	 0.0344	 333	 333	 333	 0	 0	 1	-30	 30;
	 127	 60	 0.003338	 0.015091	 0.0263	 388	 388	 388	 0	 0	 1	-30	 30;
	 75	 60	 2e-06	 0.001185	 0	 3507	 3507	 3507	 0	 0	 1	-30	 30;
	 127	 60	 0.003338	 0.015091	 0.0263	 388	 388	 388	 0	 0	 1	-30	 30;
	 76	 60	 2e-06	 0.001185	 0	 3507	 3507	 3507	 0	 0	 1	-30	 30;
	 70	 61	 0.001519	 0.010582	 0.0162	 510	 510	 510	 0	 0	 1	-30	 30;
	 86	 61	 0.002216	 0.014805	 0.0273	 507	 507	 507	 0	 0	 1	-30	 30;
	 69	 61	 0.001529	 0.010637	 0.0162	 477	 477	 477	 0	 0	 1	-30	 30;
	 86	 61	 0.002206	 0.014728	 0.0273	 507	 507	 507	 0	 0	 1	-30	 30;
	 101	 62	 0.000457	 0.006025	 0.2079	 2487	 2487	 2487	 0	 0	 1	-30	 30;
	 120	 62	 0.001856	 0.025166	 0.8563	 1264	 1264	 1264	 0	 0	 1	-30	 30;
	 138	 63	 0.001106	 0.007328	 0.0132	 440	 440	 440	 0	 0	 1	-30	 30;
	 108	 64	 9.9e-05	 0.001007	 0.003	 545	 545	 545	 0	 0	 1	-30	 30;
	 108	 65	 0.000119	 0.001067	 0.004	 545	 545	 545	 0	 0	 1	-30	 30;
	 120	 72	 0.000852	 0.011233	 0.387	 2487	 2487	 2487	 0	 0	 1	-30	 30;
	 121	 72	 0.000852	 0.011226	 0.387	 2487	 2487	 2487	 0	 0	 1	-30	 30;
	 123	 74	 0.01022	 0.054673	 0.0997	 337	 337	 337	 0	 0	 1	-30	 30;
	 132	 74	 0.003488	 0.015777	 0.0284	 413	 413	 413	 0	 0	 1	-30	 30;
	 71	 78	 0.001025	 0.008148	 0.0142	 584	 584	 584	 0	 0	 1	-30	 30;
	 106	 80	 0.000425	 0.001934	 0.003	 265	 265	 265	 0	 0	 1	-30	 30;
	 108	 81	 0.001659	 0.011575	 0.0091	 440	 440	 440	 0	 0	 1	-30	 30;
	 108	 81	 0.001659	 0.011575	 0.0091	 440	 440	 440	 0	 0	 1	-30	 30;
	 122	 82	 0.032364	 0.095227	 0.0297	 315	 315	 315	 0	 0	 1	-30	 30;
	 103	 83	 2e-05	 9.9e-05	 0.0121	 457	 457	 457	 0	 0	 1	-30	 30;
	 115	 83	 0.000435	 0.002878	 0.0051	 507	 507	 507	 0	 0	 1	-30	 30;
	 98	 84	 0.003931	 0.020365	 0.037	 388	 388	 388	 0	 0	 1	-30	 30;
	 104	 84	 0.002805	 0.012484	 0.0319	 327	 327	 327	 0	 0	 1	-30	 30;
	 131	 85	 0.001462	 0.009817	 0.0177	 524	 524	 524	 0	 0	 1	-30	 30;
	 118	 87	 0.000237	 0.001501	 0.003	 540	 540	 540	 0	 0	 1	-30	 30;
	 117	 88	 0.003121	 0.020997	 0.0385	 540	 540	 540	 0	 0	 1	-30	 30;
	 138	 88	 0.004602	 0.0208	 0.0365	 337	 337	 337	 0	 0	 1	-30	 30;
	 121	 89	 0.002694	 0.028476	 0.6599	 1115	 1115	 1115	 0	 0	 1	-30	 30;
	 127	 90	 0.000751	 0.003417	 0.0061	 331	 331	 331	 0	 0	 1	-30	 30;
	 94	 91	 2e-06	 0.001185	 0	 26121	 26121	 26121	 0	 0	 1	-30	 30;
	 92	 91	 2e-06	 0.001185	 0	 26121	 26121	 26121	 0	 0	 1	-30	 30;
	 93	 91	 2e-06	 0.001185	 0	 26121	 26121	 26121	 0	 0	 1	-30	 30;
	 106	 95	 0.000494	 0.002963	 0.0051	 350	 350	 350	 0	 0	 1	-30	 30;
	 119	 97	 0.001738	 0.011595	 0.0213	 440	 440	 440	 0	 0	 1	-30	 30;
	 140	 98	 0.002311	 0.015467	 0.0284	 507	 507	 507	 0	 0	 1	-30	 30;
	 141	 99	 5.9e-05	 0.000403	 0.001	 507	 507	 507	 0	 0	 1	-30	 30;
	 116	 104	 0.00371	 0.01789	 0.0359	 344	 344	 344	 0	 0	 1	-30	 30;
	 119	 104	 0.001428	 0.019629	 0.0754	 638	 638	 638	 0	 0	 1	-30	 30;
	 140	 104	 0.001244	 0.016316	 0.0699	 935	 935	 935	 0	 0	 1	-30	 30;
	 141	 104	 0.006728	 0.030596	 0.0587	 344	 344	 344	 0	 0	 1	-30	 30;
	 121	 105	 0.000471	 0.006184	 0.2368	 954	 954	 954	 0	 0	 1	-30	 30;
	 130	 106	 0.000415	 0.002785	 0.0051	 507	 507	 507	 0	 0	 1	-30	 30;
	 135	 107	 0.001225	 0.005981	 0.0111	 388	 388	 388	 0	 0	 1	-30	 30;
	 133	 107	 0.000474	 0.003149	 0.0061	 507	 507	 507	 0	 0	 1	-30	 30;
	 119	 108	 0.000849	 0.005728	 0.0101	 507	 507	 507	 0	 0	 1	-30	 30;
	 119	 108	 0.000849	 0.005728	 0.0101	 507	 507	 507	 0	 0	 1	-30	 30;
	 119	 108	 0.000435	 0.002963	 0.0208	 935	 935	 935	 0	 0	 1	-30	 30;
	 142	 109	 0.003927	 0.026153	 0.0486	 507	 507	 507	 0	 0	 1	-30	 30;
	 115	 111	 2e-06	 0.001185	 0	 3507	 3507	 3507	 0	 0	 1	-30	 30;
	 115	 114	 2e-06	 0.001185	 0	 3507	 3507	 3507	 0	 0	 1	-30	 30;
	 115	 113	 2e-06	 0.001185	 0	 3507	 3507	 3507	 0	 0	 1	-30	 30;
	 115	 112	 2e-06	 0.001185	 0	 3507	 3507	 3507	 0	 0	 1	-30	 30;
	 118	 117	 0.010815	 0.050299	 0.0876	 336	 336	 336	 0	 0	 1	-30	 30;
	 130	 119	 0.001719	 0.011457	 0.0213	 507	 507	 507	 0	 0	 1	-30	 30;
	 139	 119	 0.00079	 0.00798	 0.0284	 507	 507	 507	 0	 0	 1	-30	 30;
	 133	 119	 0.001434	 0.009559	 0.0172	 507	 507	 507	 0	 0	 1	-30	 30;
	 125	 123	 0.004186	 0.02786	 0.0516	 405	 405	 405	 0	 0	 1	-30	 30;
	 134	 123	 0.002173	 0.014242	 0.0273	 507	 507	 507	 0	 0	 1	-30	 30;
	 137	 123	 0.004109	 0.027417	 0.0486	 492	 492	 492	 0	 0	 1	-30	 30;
	 142	 123	 0.001106	 0.007407	 0.0132	 492	 492	 492	 0	 0	 1	-30	 30;
	 127	 126	 2e-06	 0.001185	 0	 26121	 26121	 26121	 0	 0	 1	-30	 30;
	 7	 8	 0.000893	 0.043767	 0	 606	 606	 606	 1.005027	 0	 1	-30	 30;
	 7	 8	 0.000693	 0.048615	 0	 606	 606	 606	 1.005027	 0	 1	-30	 30;
	 20	 21	 0.000263	 0.025277	 0	 585	 585	 585	 0.959693	 0	 1	-30	 30;
	 20	 21	 0.000319	 0.024862	 0	 1186	 1186	 1186	 1	 0	 1	-30	 30;
	 57	 58	 0.00081	 0.039266	 0	 600	 600	 600	 1.005027	 0	 1	-30	 30;
	 57	 58	 0.00081	 0.039612	 0	 600	 600	 600	 1.005027	 0	 1	-30	 30;
	 61	 62	 0.000332	 0.024862	 0	 1186	 1186	 1186	 1.005027	 0	 1	-30	 30;
	 61	 62	 0.000319	 0.024792	 0	 1186	 1186	 1186	 1.005027	 0	 1	-30	 30;
	 61	 62	 0.000319	 0.025139	 0	 1186	 1186	 1186	 1.005027	 0	 1	-30	 30;
	 66	 143	 0.000443	-0.004848	 0	 606	 606	 606	 1.005027	 0	 1	-30	 30;
	 66	 144	 0.000305	-0.007133	 0	 606	 606	 606	 1.005027	 0	 1	-30	 30;
	 71	 72	 0.000319	 0.024792	 0	 1186	 1186	 1186	 1.005027	 0	 1	-30	 30;
	 71	 72	 0.000319	 0.024792	 0	 1186	 1186	 1186	 1.005027	 0	 1	-30	 30;
	 88	 89	 0.000817	 0.04349	 0	 608	 608	 608	 1	 0	 1	-30	 30;
	 88	 89	 0.000319	 0.027978	 0	 1136	 1136	 1136	 1.005027	 0	 1	-30	 30;
	 100	 101	 0.000319	 0.024792	 0	 1186	 1186	 1186	 1.005027	 0	 1	-30	 30;
	 104	 105	 0.000291	 0.024792	 0	 1186	 1186	 1186	 1.005027	 0	 1	-30	 30;
	 119	 121	 0.000305	 0.024862	 0	 1186	 1186	 1186	 1.005027	 0	 1	-30	 30;
	 122	 123	 0.002212	 0.125432	 0	 251	 251	 251	 0.928505	 0	 1	-30	 30;
	 123	 124	 0.000319	 0.024792	 0	 1186	 1186	 1186	 1.005027	 0	 1	-30	 30;
	 123	 124	 0.000325	 0.025	 0	 1186	 1186	 1186	 1.005027	 0	 1	-30	 30;
	 10	 145	 0	 0.048207	 0	 295	 295	 295	 1.080978	 0	 1	-30	 30;
	 9	 146	 0	 0.048207	 0	 281	 281	 281	 1.080978	 0	 1	-30	 30;
	 11	 147	 0	 0.043965	 0	 284	 284	 284	 1.065789	 0	 1	-30	 30;
	 11	 148	 0	 0.03442	 0	 921	 921	 921	 1.060526	 0	 1	-30	 30;
	 11	 149	 0	 0.06506	 0	 487	 487	 487	 1.060526	 0	 1	-30	 30;
	 14	 150	 0	 0.008909	 0	 1592	 1592	 1592	 1.092105	 0	 1	-30	 30;
	 15	 151	 0	 0.008909	 0	 628	 628	 628	 1.092105	 0	 1	-30	 30;
	 16	 152	 0	 0.008909	 0	 1638	 1638	 1638	 1.092105	 0	 1	-30	 30;
	 17	 153	 0	 0.008909	 0	 1653	 1653	 1653	 1.092105	 0	 1	-30	 30;
	 24	 154	 0	 0.032831	 0	 309	 309	 309	 1.044444	 0	 1	-30	 30;
	 34	 155	 0	 0.510159	 0	 62	 62	 62	 1.053333	 0	 1	-30	 30;
	 35	 156	 0	 0.510159	 0	 62	 62	 62	 1.053333	 0	 1	-30	 30;
	 36	 157	 0	 0.510159	 0	 62	 62	 62	 1.053333	 0	 1	-30	 30;
	 37	 158	 0	 0.510159	 0	 62	 62	 62	 1.053333	 0	 1	-30	 30;
	 44	 159	 0	 0.47948	 0	 66	 66	 66	 1.053333	 0	 1	-30	 30;
	 41	 160	 0	 0.47948	 0	 66	 66	 66	 1.053333	 0	 1	-30	 30;
	 39	 161	 0	 0.47948	 0	 66	 66	 66	 1.053333	 0	 1	-30	 30;
...
];

mpc_regionR2.gencost = [
%	2           startup     shutdown    n           c(n-1)...c0 
	 2	 0	 0	 3	 0	 19.0542	 0;
	 2	 0	 0	 3	 0	 107.769028	 0;
	 2	 0	 0	 3	 0	 43.736707	 0;
	 2	 0	 0	 3	 0	 105.885449	 0;
	 2	 0	 0	 3	 0	 31.268236	 0;
	 2	 0	 0	 3	 0	 38.769206	 0;
	 2	 0	 0	 3	 0	 37.547177	 0;
	 2	 0	 0	 3	 0	 53.52477	 0;
	 2	 0	 0	 3	 0	 28.154423	 0;
	 2	 0	 0	 3	 0	 28.847748	 0;
	 2	 0	 0	 3	 0	 17.148809	 0;
	 2	 0	 0	 3	 0	 110.949041	 0;
	 2	 0	 0	 3	 0	 14.654502	 0;
	 2	 0	 0	 3	 0	 18.139403	 0;
	 2	 0	 0	 3	 0	 29.848201	 0;
	 2	 0	 0	 3	 0	 27.343104	 0;
	 2	 0	 0	 3	 0	 112.135998	 0;
	 2	 0	 0	 3	 0	 105.755788	 0;
	 2	 0	 0	 3	 0	 97.36834	 0;
	 2	 0	 0	 3	 0	 116.594277	 0;
	 2	 0	 0	 3	 0	 38.730261	 0;
	 2	 0	 0	 3	 0	 92.857929	 0;
	 2	 0	 0	 3	 0	 119.356585	 0;
	 2	 0	 0	 3	 0	 54.174773	 0;
	 2	 0	 0	 3	 0	 25.133185	 0;
	 2	 0	 0	 3	 0	 39.779575	 0;
	 2	 0	 0	 3	 0	 31.431419	 0;
	 2	 0	 0	 3	 0	 23.276026	 0;
	 2	 0	 0	 3	 0	 31.525292	 0;
	 2	 0	 0	 3	 0	 87.007738	 0;
	 2	 0	 0	 3	 0	 14.345443	 0;
	 2	 0	 0	 3	 0	 30.136384	 0;
	 2	 0	 0	 3	 0	 26.843069	 0;
	 2	 0	 0	 3	 0	 27.08729	 0;
	 2	 0	 0	 3	 0	 27.400922	 0;
	 2	 0	 0	 3	 0	 112.861407	 0;
	 2	 0	 0	 3	 0	 41.137394	 0;
	 2	 0	 0	 3	 0	 14.912484	 0;
	 2	 0	 0	 3	 0	 99.051425	 0;
	 2	 0	 0	 3	 0	 23.460287	 0;
];


% -------------------- mpc_regionR3 --------------------

mpc_regionR3.version = '2';
mpc_regionR3.baseMVA = 100.0000;
mpc_regionR3.bus = [
%	bus_i       type        Pd          Qd          Gs          Bs          area        Vm          Va          baseKV      zone        Vmax        Vmin        
	 1	 1	 36.4	 19.5	 0	 0	 1	 0.98889	 0	 225	 1	 1.08889	 0.88889;
	 2	 1	 75.8	 7.3	 0	 0	 1	 1.01626	 0	 225	 1	 1.08252	 0.95;
	 3	 1	 66.2	 0.9	 0	 0	 1	 0.98889	 0	 225	 1	 1.08889	 0.88889;
	 4	 1	 41.1	 2.7	 0	 0	 1	 0.98889	 0	 225	 1	 1.08889	 0.88889;
	 5	 1	 117.8	 31.5	 0	 0	 1	 1.02889	 0	 225	 1	 1.08889	 0.96889;
	 6	 1	 194.8	 53.6	 0	 0	 1	 1.05263	 0	 380	 1	 1.10526	 1;
	 7	 1	 44.6	 15.6	 0	 0	 1	 0.98889	 0	 225	 1	 1.08889	 0.88889;
	 8	 1	 46.9	 11.7	 0	 0	 1	 0.98889	 0	 225	 1	 1.08889	 0.88889;
	 9	 1	 74.6	 28	 0	 0	 1	 0.98889	 0	 225	 1	 1.08889	 0.88889;
	 10	 1	 160.2	 38.2	 0	 0	 1	 1.02889	 0	 225	 1	 1.08889	 0.96889;
	 11	 1	 0	 0	 0	 0	 1	 1.05263	 0	 380	 1	 1.10526	 1;
	 12	 1	 16.4	 4.9	 0	 0	 1	 0.98889	 0	 225	 1	 1.08889	 0.88889;
	 13	 1	 0	 0	 0	 80	 1	 0.98889	 0	 225	 1	 1.08889	 0.88889;
	 14	 1	 0	 0	 0	 0	 1	 0.98889	 0	 225	 1	 1.08889	 0.88889;
	 15	 1	 0	 0	 0	 0	 1	 1.05921	 0	 380	 1	 1.10526	 1.01316;
	 16	 1	 27.9	 3.3	 0	 0	 1	 1.01562	 0	 225	 1	 1.08124	 0.95;
	 17	 1	 61.9	 19.7	 0	 0	 1	 0.98889	 0	 225	 1	 1.08889	 0.88889;
	 18	 1	 245.6	 120.6	 0	 0	 1	 1.00667	 0	 225	 1	 1.08889	 0.92444;
	 19	 1	 123.5	 26.5	 0	 0	 1	 1.02889	 0	 225	 1	 1.08889	 0.96889;
	 20	 1	 165.9	 38.2	 0	 0	 1	 0.98889	 0	 225	 1	 1.08889	 0.88889;
	 21	 1	 29.1	-7.9	 0	 0	 1	 0.98889	 0	 225	 1	 1.08889	 0.88889;
	 22	 1	 65.9	 23.3	 0	 0	 1	 1.00667	 0	 225	 1	 1.08889	 0.92444;
	 23	 1	 135.5	 19.2	 0	 0	 1	 1.02889	 0	 225	 1	 1.08889	 0.96889;
	 24	 1	 211.2	 31	 0	 0	 1	 1.02	 0	 225	 1	 1.08889	 0.95111;
	 25	 2	 0	 0	 0	 0	 1	 1.01429	 0	 225	 1	 1.07859	 0.95;
	 26	 1	 0	 0	 0	 0	 1	 0.98889	 0	 225	 1	 1.08889	 0.88889;
	 27	 1	 7	 3.7	 0	 0	 1	 1.02667	 0	 150	 1	 1.10667	 0.94667;
	 28	 1	 127.1	 31	 0	 0	 1	 1	 0	 225	 1	 1.08889	 0.91111;
	 29	 1	 0	 0	 0	 0	 1	 1.05263	 0	 380	 1	 1.10526	 1;
	 30	 1	 185.6	 81.4	 0	 0	 1	 1.00889	 0	 225	 1	 1.08889	 0.92889;
	 31	 1	 0	 0	 0	 0	 1	 1.05263	 0	 380	 1	 1.10526	 1;
	 32	 1	 28.9	-5.7	 0	 0	 1	 1.05809	 0	 380	 1	 1.11618	 1;
	 33	 1	-21.4	 7.7	 0	 0	 1	 1.05851	 0	 380	 1	 1.11703	 1;
	 34	 1	 57.4	 17.5	 0	 0	 1	 0.98889	 0	 225	 1	 1.08889	 0.88889;
	 35	 1	 45.8	 6.5	 0	 0	 1	 0.98889	 0	 225	 1	 1.08889	 0.88889;
	 36	 1	 143.6	 22.9	 0	 0	 1	 1.04666	 0	 225	 1	 1.08889	 1.00444;
	 37	 1	 48.5	 23.7	 0	 0	 1	 0.98889	 0	 225	 1	 1.08889	 0.88889;
	 38	 1	 124.7	-2.6	 0	 0	 1	 1.01111	 0	 225	 1	 1.08889	 0.93333;
	 39	 1	 0	 0	 0	 0	 1	 0.98889	 0	 225	 1	 1.08889	 0.88889;
	 40	 1	 0.3	-0.7	 0	 0	 1	 0.98889	 0	 225	 1	 1.08889	 0.88889;
	 41	 1	 70.5	-3.2	 0	 0	 1	 1.00445	 0	 225	 1	 1.08889	 0.92;
	 42	 1	 103.4	 48.6	 0	 0	 1	 0.99778	 0	 225	 1	 1.08889	 0.90667;
	 43	 1	 0	 0	 0	 0	 1	 1.02667	 0	 150	 1	 1.10667	 0.94667;
	 44	 1	 8.2	-1.2	 0	 0	 1	 0.98889	 0	 225	 1	 1.08889	 0.88889;
	 45	 1	 10.4	 1.2	 0	 0	 1	 0.98889	 0	 225	 1	 1.08889	 0.88889;
	 46	 1	 0	 0	 0	 0	 1	 0.98889	 0	 225	 1	 1.08889	 0.88889;
	 47	 1	 0	 0	 0	 0	 1	 1.02222	 0	 225	 1	 1.15556	 0.88889;
	 48	 1	 0	 0	 0	 0	 1	 1.02222	 0	 225	 1	 1.15556	 0.88889;
	 49	 1	 28.4	 8.7	 0	 0	 1	 0.98889	 0	 225	 1	 1.08889	 0.88889;
	 50	 1	 5.8	-26	 0	 0	 1	 0.98889	 0	 225	 1	 1.08889	 0.88889;
	 51	 1	 163.4	 41.9	 0	 0	 1	 1.02889	 0	 225	 1	 1.08889	 0.96889;
	 52	 1	 61.3	 19.4	 0	 0	 1	 0.98889	 0	 225	 1	 1.08889	 0.88889;
	 53	 1	 39.2	 10.6	 0	 0	 1	 0.98889	 0	 225	 1	 1.08889	 0.88889;
	 54	 1	 7.4	 1.5	 0	 0	 1	 0.98889	 0	 225	 1	 1.08889	 0.88889;
	 55	 1	 0.3	-8.4	 0	 0	 1	 0.98889	 0	 225	 1	 1.08889	 0.88889;
	 56	 1	 151.7	 76.3	 0	 0	 1	 1.01556	 0	 225	 1	 1.08889	 0.94222;
	 57	 1	 25.6	 15.4	 0	 0	 1	 0.98889	 0	 225	 1	 1.08889	 0.88889;
	 58	 1	 18.8	 9.6	 0	 0	 1	 0.98889	 0	 225	 1	 1.08889	 0.88889;
	 59	 1	 72.4	 58.1	 0	 0	 1	 1.01556	 0	 225	 1	 1.08889	 0.94222;
	 60	 1	 339.3	 87.6	 0	 0	 1	 1.05263	 0	 380	 1	 1.10526	 1;
	 61	 1	 0	 0	 0	 0	 1	 1.05263	 0	 380	 1	 1.10526	 1;
	 62	 1	 0	 0	 0	 0	 1	 1.05263	 0	 380	 1	 1.10526	 1;
	 63	 1	 0	 0	 0	 0	 1	 1.05263	 0	 380	 1	 1.10526	 1;
	 64	 1	 0	 0	 0	 0	 1	 1.05263	 0	 380	 1	 1.10526	 1;
	 65	 1	 0	 0	 0	 0	 1	 1.05263	 0	 380	 1	 1.10526	 1;
	 66	 1	 0	 0	 0	 0	 1	 1.05263	 0	 380	 1	 1.10526	 1;
	 67	 1	 0	 0	 0	 0	 1	 1	 0	 225	 1	 1.08889	 0.91111;
	 68	 1	 54.7	 29.1	 0	 0	 1	 1	 0	 225	 1	 1.08889	 0.91111;
	 69	 1	 0	 0	 0	 0	 1	 1.02667	 0	 150	 1	 1.10667	 0.94667;
	 70	 1	 115.1	 25.8	 0	 0	 1	 1.02222	 0	 225	 1	 1.08889	 0.95556;
	 71	 1	 21.1	 8.3	 0	 0	 1	 0.98889	 0	 225	 1	 1.08889	 0.88889;
	 72	 1	 408.2	 120.8	 0	 0	 1	 0.98889	 0	 225	 1	 1.08889	 0.88889;
	 73	 1	 172.6	 27.9	 0	 0	 1	 1.02889	 0	 225	 1	 1.08889	 0.96889;
	 74	 1	 63.2	 15.3	 0	 0	 1	 0.98889	 0	 225	 1	 1.08889	 0.88889;
	 75	 1	 34.6	 7.5	 0	 0	 1	 0.98889	 0	 225	 1	 1.08889	 0.88889;
	 76	 1	 128.2	 13	 0	 0	 1	 0.98889	 0	 225	 1	 1.08889	 0.88889;
	 77	 1	 59	 25	 0	 0	 1	 1.07002	 0	 380	 1	 1.10526	 1.03478;
	 78	 1	 98.8	 21	 0	 0	 1	 1.02889	 0	 225	 1	 1.08889	 0.96889;
	 79	 1	 1.1	 5.2	 0	 0	 1	 0.98889	 0	 225	 1	 1.08889	 0.88889;
	 80	 1	 219.6	 62.3	 0	 0	 1	 1.00667	 0	 225	 1	 1.08889	 0.92444;
	 81	 1	 73.5	 23.4	 0	 0	 1	 0.98889	 0	 225	 1	 1.08889	 0.88889;
	 82	 1	 0	 0	 0	 0	 1	 0.98889	 0	 225	 1	 1.08889	 0.88889;
	 83	 1	 0	 0	 0	 0	 1	 0.98889	 0	 225	 1	 1.08889	 0.88889;
	 84	 1	 0	 0	 0	 0	 1	 1.05263	 0	 380	 1	 1.10526	 1;
	 85	 1	 20.6	 10.7	 0	 0	 1	 0.98889	 0	 225	 1	 1.08889	 0.88889;
	 86	 1	 20.2	 8.4	 0	 0	 1	 0.98889	 0	 225	 1	 1.08889	 0.88889;
	 87	 1	-0	-0	 0	 0	 1	 0.98889	 0	 225	 1	 1.08889	 0.88889;
	 88	 1	 198.3	 33.9	 0	 0	 1	 1.02889	 0	 225	 1	 1.08889	 0.96889;
	 89	 1	 0	 0	 0	 0	 1	 1.05263	 0	 380	 1	 1.10526	 1;
	 90	 1	 51.5	 16.7	 0	 0	 1	 0.98889	 0	 225	 1	 1.08889	 0.88889;
	 91	 1	-4.6	-1.1	 0	 0	 1	 0.98889	 0	 225	 1	 1.08889	 0.88889;
	 92	 1	 0	 0	 0	 0	 1	 0.98889	 0	 225	 1	 1.08889	 0.88889;
	 93	 1	 0	 0	 0	 0	 1	 1.05263	 0	 380	 1	 1.10526	 1;
	 94	 1	-4.1	 0.5	 0	 80	 1	 1.02222	 0	 225	 1	 1.08889	 0.95556;
	 95	 1	 130.6	 27.4	 0	 0	 1	 1.05263	 0	 380	 1	 1.10526	 1;
	 96	 1	 90.6	 45.9	 0	 0	 1	 0.98889	 0	 225	 1	 1.08889	 0.88889;
	 97	 1	 7.3	-3.3	 0	 0	 1	 0.98889	 0	 225	 1	 1.08889	 0.88889;
	 98	 1	 0	 0	 0	 0	 1	 1.05263	 0	 380	 1	 1.10526	 1;
	 99	 1	 39.9	 5.4	 0	 0	 1	 0.98889	 0	 225	 1	 1.08889	 0.88889;
	 100	 1	 63.9	 14.8	 0	 0	 1	 0.98889	 0	 225	 1	 1.08889	 0.88889;
	 101	 1	 42.4	-2.9	 0	 0	 1	 0.98889	 0	 225	 1	 1.08889	 0.88889;
	 102	 1	 109.3	 29	 0	 0	 1	 0.99556	 0	 225	 1	 1.08889	 0.90222;
	 103	 1	 154.6	 19.8	 0	 0	 1	 1.00222	 0	 225	 1	 1.08889	 0.91556;
	 104	 1	 144.8	 24.1	 0	 80	 1	 0.98889	 0	 225	 1	 1.08889	 0.88889;
	 105	 1	 100.9	 11.2	 0	 0	 1	 1.02445	 0	 225	 1	 1.08889	 0.96;
	 106	 1	 101.7	 30.9	 0	 80	 1	 1.00889	 0	 225	 1	 1.08889	 0.92889;
	 107	 1	 62.1	 2.3	 0	 0	 1	 0.98889	 0	 225	 1	 1.08889	 0.88889;
	 108	 1	 123.3	-6.1	 0	 0	 1	 1.00667	 0	 225	 1	 1.08889	 0.92444;
	 109	 1	 69	 58.3	 0	 0	 1	 0.98889	 0	 225	 1	 1.08889	 0.88889;
	 110	 1	 91.1	 16.9	 0	 0	 1	 0.98889	 0	 225	 1	 1.08889	 0.88889;
	 111	 1	 0	 0	 0	 0	 1	 1.05263	 0	 380	 1	 1.10526	 1;
	 112	 1	 0	 0	 0	 0	 1	 1.05263	 0	 380	 1	 1.10526	 1;
	 113	 1	 0	 0	 0	 0	 1	 1.05263	 0	 380	 1	 1.10526	 1;
	 114	 1	 0	 0	 0	 0	 1	 1.05263	 0	 380	 1	 1.10526	 1;
	 115	 1	 54.9	 11.3	 0	 0	 1	 0.98889	 0	 225	 1	 1.08889	 0.88889;
	 116	 1	 29.3	 6.8	 0	 0	 1	 0.98889	 0	 225	 1	 1.08889	 0.88889;
	 117	 1	 172.1	 58.4	 0	 0	 1	 1.01384	 0	 225	 1	 1.07769	 0.95;
	 118	 1	 22	-10.7	 0	 0	 1	 0.98889	 0	 225	 1	 1.08889	 0.88889;
	 119	 1	 10.2	 4.9	 0	 0	 1	 0.98889	 0	 225	 1	 1.08889	 0.88889;
	 120	 1	 19.1	 1.7	 0	 0	 1	 0.98889	 0	 225	 1	 1.08889	 0.88889;
	 121	 1	 32.9	 8	 0	 0	 1	 0.98889	 0	 225	 1	 1.08889	 0.88889;
	 122	 1	 93	 32.7	 0	 0	 1	 0.98889	 0	 225	 1	 1.08889	 0.88889;
	 123	 1	 141.1	 45.8	 0	 0	 1	 1.01111	 0	 225	 1	 1.08889	 0.93333;
	 124	 1	 72.6	 20.5	 0	 0	 1	 1.05263	 0	 380	 1	 1.10526	 1;
	 125	 1	 182	 38.2	 0	 0	 1	 1.02889	 0	 225	 1	 1.08889	 0.96889;
	 126	 1	 40.8	 8.7	 0	 0	 1	 0.98889	 0	 225	 1	 1.08889	 0.88889;
	 127	 1	 30.9	 8.8	 0	 0	 1	 0.98889	 0	 225	 1	 1.08889	 0.88889;
	 128	 1	 31.7	 12	 0	 0	 1	 0.98889	 0	 225	 1	 1.08889	 0.88889;
	 129	 1	 32.5	-1.1	 0	 0	 1	 0.98889	 0	 225	 1	 1.08889	 0.88889;
	 130	 1	 108.5	 10.9	 0	 0	 1	 1.01333	 0	 225	 1	 1.08889	 0.93778;
	 131	 1	 135.2	 14	 0	 0	 1	 0.98889	 0	 225	 1	 1.08889	 0.88889;
	 132	 1	 85.1	 8.4	 0	 0	 1	 0.98889	 0	 225	 1	 1.08889	 0.88889;
	 133	 1	 0.3	 2.7	 0	 0	 1	 0.98889	 0	 225	 1	 1.08889	 0.88889;
	 134	 1	 0.4	 0.1	 0	 0	 1	 0.98889	 0	 225	 1	 1.08889	 0.88889;
	 135	 1	 36.7	 5.1	 0	 0	 1	 0.98889	 0	 225	 1	 1.08889	 0.88889;
	 136	 1	 9.9	-0.8	 0	 0	 1	 0.98889	 0	 225	 1	 1.08889	 0.88889;
	 137	 1	 75.7	 10.9	 0	 0	 1	 0.98889	 0	 225	 1	 1.08889	 0.88889;
	 138	 1	 73	 9.5	 0	 0	 1	 0.98889	 0	 225	 1	 1.08889	 0.88889;
	 139	 1	 0	 0	 0	 0	 1	 0.98889	 0	 225	 1	 1.08889	 0.88889;
	 140	 1	 0	 0	 0	 0	 1	 0.98889	 0	 225	 1	 1.08889	 0.88889;
	 141	 1	 0	 0	 0	 0	 1	 1.03947	 0	 380	 1	 1.10526	 0.97368;
	 142	 1	-5	-2.7	 0	 0	 1	 0.98889	 0	 225	 1	 1.08889	 0.88889;
	 143	 1	 9	-6.6	 0	 0	 1	 0.98889	 0	 225	 1	 1.08889	 0.88889;
	 144	 1	 0.9	-4.1	 0	 0	 1	 0.98889	 0	 225	 1	 1.08889	 0.88889;
	 145	 1	 0	 0	 0	 0	 1	 1.05263	 0	 380	 1	 1.10526	 1;
	 146	 1	 0	 0	 0	 0	 1	 1.05263	 0	 380	 1	 1.10526	 1;
	 147	 1	 24.1	 10.4	 0	 0	 1	 0.98889	 0	 225	 1	 1.08889	 0.88889;
	 148	 1	 31.8	 8.3	 0	 0	 1	 0.98889	 0	 225	 1	 1.08889	 0.88889;
	 149	 1	 0	 0	 0	 0	 1	 0.98889	 0	 225	 1	 1.08889	 0.88889;
	 150	 1	 0	 0	 0	 0	 1	 1.05263	 0	 380	 1	 1.10526	 1;
	 151	 1	 24.8	 12.7	 0	 0	 1	 0.98889	 0	 225	 1	 1.08889	 0.88889;
	 152	 1	 18.2	 8.4	 0	 0	 1	 0.98889	 0	 225	 1	 1.08889	 0.88889;
	 153	 1	 4.1	 3.3	 0	 0	 1	 0.98889	 0	 225	 1	 1.08889	 0.88889;
	 154	 1	 0	 0	 0	 0	 1	 0.99333	 0	 225	 1	 1.13333	 0.85333;
	 155	 1	 0	 0	 0	 0	 1	 0.99333	 0	 225	 1	 1.13333	 0.85333;
	 156	 1	 0	 0	 0	 0	 1	 0.99333	 0	 225	 1	 1.13333	 0.85333;
	 157	 1	 0	 0	 0	 0	 1	 0.99333	 0	 225	 1	 1.13333	 0.85333;
	 158	 1	 0	 0	 0	 0	 1	 0.99333	 0	 225	 1	 1.13333	 0.85333;
	 159	 1	 0	 0	 0	 0	 1	 0.99333	 0	 225	 1	 1.13333	 0.85333;
	 160	 1	 0	 0	 0	 0	 1	 0.99333	 0	 225	 1	 1.13333	 0.85333;
	 161	 1	 0	 0	 0	 0	 1	 0.99333	 0	 225	 1	 1.13333	 0.85333;
	 162	 1	 0	 0	 0	 0	 1	 1.05263	 0	 380	 1	 1.10526	 1;
	 163	 1	 0	 0	 0	 0	 1	 0.99333	 0	 225	 1	 1.13333	 0.85333;
	 164	 1	 0	 0	 0	 0	 1	 0.99333	 0	 225	 1	 1.13333	 0.85333;
	 165	 1	 0	 0	 0	 0	 1	 1.06579	 0	 380	 1	 1.10526	 1.02632;
	 166	 1	-0	-0	 0	 0	 1	 1.03327	 0	 380	 1	 1.10526	 0.96127;
	 167	 1	 0	 0	 0	 0	 1	 1.06579	 0	 380	 1	 1.10526	 1.02632;
	 168	 1	 0	 0	 0	 0	 1	 1.06196	 0	 380	 1	 1.10526	 1.01867;
	 169	 2	 13	 7	 0	 0	 1	 1.00036	 0	 20	 1	 1.05072	 0.95;
	 170	 2	 0	 0	 0	 0	 1	 0.99963	 0	 20	 1	 1.05544	 0.94383;
	 171	 2	 0	 0	 0	 0	 1	 1.00522	 0	 20	 1	 1.06044	 0.95;
	 172	 2	 0.8	 0.8	 0	 0	 1	 1	 0	 15	 1	 1.05	 0.95;
	 173	 2	 0.3	 0.3	 0	 0	 1	 1	 0	 15	 1	 1.05	 0.95;
	 174	 2	 11.7	 7	 0	 0	 1	 1	 0	 18	 1	 1.05	 0.95;
	 175	 2	-0.1	-0	 0	 0	 1	 1	 0	 18	 1	 1.05	 0.95;
	 176	 2	 37	 15	 0	 0	 1	 1	 0	 24	 1	 1.05	 0.95;
	 177	 2	 37	 15	 0	 0	 1	 1	 0	 24	 1	 1.05	 0.95;
	 178	 2	 37	 15	 0	 0	 1	 0.9936	 0	 24	 1	 1.05603	 0.93116;
	 179	 2	 37	 15	 0	 0	 1	 0.99876	 0	 24	 1	 1.05	 0.94752;
	 180	 2	 37	 15	 0	 0	 1	 1	 0	 24	 1	 1.05	 0.95;
	 181	 2	 24.4	 8.9	 0	 0	 1	 1	 0	 24	 1	 1.05	 0.95;
	 182	 2	 5.7	 0	 0	 0	 1	 1	 0	 20	 1	 1.05	 0.95;
	 183	 2	 15.7	 12.5	 0	 0	 1	 1.01423	 0	 20	 1	 1.07847	 0.95;
	 184	 2	 0	 0	 0	 0	 1	 1	 0	 13	 1	 1.1	 0.9;
	 185	 2	 0	 0	 0	 0	 1	 1.00314	 0	 13	 1	 1.10629	 0.9;
	 186	 2	 0	 0	 0	 0	 1	 1	 0	 13	 1	 1.1	 0.9;
	 187	 2	 0	 0	 0	 0	 1	 1.00145	 0	 13	 1	 1.1029	 0.9;
	 188	 1	-449.7	 279.9	 0	 0	 1	 1.05263	 0	 380	 1	 1.10526	 1;
	 189	 1	-538.2	 258.1	 0	 0	 1	 1.05263	 0	 380	 1	 1.10526	 1;
	 190	 1	 93	 38.4	 0	 0	 1	 1.05263	 0	 380	 1	 1.10526	 1;
	 191	 1	 215.6	-37.2	 0	 0	 1	 1.05263	 0	 380	 1	 1.10526	 1;
	 192	 1	 29.1	-65.5	 0	 0	 1	 1.05921	 0	 380	 1	 1.10526	 1.01316;
];

mpc_regionR3.gen = [
%	bus         Pg          Qg          Qmax        Qmin        Vg          mBase       status      Pmax        Pmin        Pc1         Pc2         Qc1min      Qc1max      Qc2min      Qc2max      ramp_agc    ramp_10     ramp_30     ramp_q      apf         
	 117	 33	 0	 0	 0	 1.013845	 100	 1	 55	 11;
	 16	 15.18	 0	 0	 0	 1.01562	 100	 1	 25.3	 5.06;
	 25	 14.1	 0	 8	-8	 1.014295	 100	 1	 23.5	 4.7;
	 2	 16.56	 0	 0	 0	 1.01626	 100	 1	 27.6	 5.52;
	 2	 14.4	 0	 0	 0	 1.01626	 100	 1	 24	 4.8;
	 169	 198	 28.135	 146.45	-90.18	 1.00036	 100	 1	 263	 133;
	 170	 953	 277.96	 682.28	-126.36	 0.9996345	 100	 1	 1503	 403;
	 171	 953	 282.755	 687.17	-121.66	 1.00522	 100	 1	 1503	 403;
	 172	 124.99	 13.48	 71.21	-44.25	 1	 100	 1	 168.17	 81.81;
	 173	 125.44	 17.825	 73.34	-37.69	 1	 100	 1	 168.6	 82.28;
	 174	 151.06	 34.915	 113.53	-43.7	 1	 100	 1	 248.21	 53.91;
	 175	 141.03	 20.78	 100.92	-59.36	 1	 100	 1	 238.09	 43.97;
	 176	 592	 213.325	 524.88	-98.23	 1	 100	 1	 947	 237;
	 177	 607	 216.68	 528.27	-94.91	 1	 100	 1	 947	 267;
	 178	 592	 217.915	 529.5	-93.67	 0.993595	 100	 1	 947	 237;
	 179	 592	 217.03	 528.59	-94.53	 0.9987595	 100	 1	 947	 237;
	 180	 592	 217.94	 529.53	-93.65	 1	 100	 1	 947	 237;
	 181	 592	 192.575	 504.13	-118.98	 1	 100	 1	 947	 237;
	 182	 182.5	 33.75	 104.81	-37.31	 1	 100	 1	 240	 125;
	 183	 335.3	 93.085	 187.44	-1.27	 1.014235	 100	 1	 439.8	 230.8;
	 184	 108	 8.27	 110.99	-94.45	 1	 100	 1	 180	 36;
	 185	 108	 1.96	 105.25	-101.33	 1.003145	 100	 1	 180	 36;
	 186	 108	 7.975	 110.69	-94.74	 1	 100	 1	 180	 36;
	 187	 108	 7.955	 110.67	-94.76	 1.00145	 100	 1	 180	 36;
];

mpc_regionR3.branch = [
%	fbus        tbus        r           x           b           rateA       rateB       rateC       ratio       angle       status      angmin      angmax      
	 83	 1	 0.002607	 0.017462	 0.0324	 540	 540	 540	 0	 0	 1	-30	 30;
	 5	 2	 0.002568	 0.011753	 0.0203	 424	 424	 424	 0	 0	 1	-30	 30;
	 154	 2	 0.002568	 0.011615	 0.0228	 290	 290	 290	 0	 0	 1	-30	 30;
	 154	 3	 0.000514	 0.003437	 0.0061	 290	 290	 290	 0	 0	 1	-30	 30;
	 155	 3	 0.005476	 0.036879	 0.1255	 522	 522	 522	 0	 0	 1	-30	 30;
	 5	 3	 0.000514	 0.003457	 0.0061	 418	 418	 418	 0	 0	 1	-30	 30;
	 14	 4	 0.001383	 0.009462	 0.0172	 463	 463	 463	 0	 0	 1	-30	 30;
	 49	 4	 0.00156	 0.006933	 0.0121	 432	 432	 432	 0	 0	 1	-30	 30;
	 68	 4	 0.006376	 0.028733	 0.0506	 432	 432	 432	 0	 0	 1	-30	 30;
	 106	 4	 0.00158	 0.010627	 0.0192	 481	 481	 481	 0	 0	 1	-30	 30;
	 19	 5	 0.004879	 0.032454	 0.0602	 487	 487	 487	 0	 0	 1	-30	 30;
	 23	 5	 0.006341	 0.042746	 0.0785	 418	 418	 418	 0	 0	 1	-30	 30;
	 26	 5	 0.006914	 0.031249	 0.0547	 327	 327	 327	 0	 0	 1	-30	 30;
	 31	 6	 0.000582	 0.007652	 0.2643	 2487	 2487	 2487	 0	 0	 1	-30	 30;
	 93	 6	 0.001648	 0.021634	 0.748	 1470	 1470	 1470	 0	 0	 1	-30	 30;
	 31	 6	 0.000575	 0.007576	 0.2614	 2487	 2487	 2487	 0	 0	 1	-30	 30;
	 93	 6	 0.001646	 0.021633	 0.7479	 1470	 1470	 1470	 0	 0	 1	-30	 30;
	 149	 7	 0.000632	 0.004188	 0.0081	 471	 471	 471	 0	 0	 1	-30	 30;
	 149	 8	 0.000612	 0.004148	 0.0071	 471	 471	 471	 0	 0	 1	-30	 30;
	 41	 9	 0.001442	 0.009699	 0.0172	 566	 566	 566	 0	 0	 1	-30	 30;
	 44	 9	 0.001422	 0.009541	 0.0172	 566	 566	 566	 0	 0	 1	-30	 30;
	 51	 10	 0.004681	 0.028227	 0.0516	 440	 440	 440	 0	 0	 1	-30	 30;
	 92	 10	 0.001185	 0.008	 0.0152	 575	 575	 575	 0	 0	 1	-30	 30;
	 160	 10	 0.005333	 0.02722	 0.0491	 440	 440	 440	 0	 0	 1	-30	 30;
	 93	 11	 0.000145	 0.001911	 0.0661	 2487	 2487	 2487	 0	 0	 1	-30	 30;
	 146	 11	 0.000253	 0.003323	 0.1148	 2487	 2487	 2487	 0	 0	 1	-30	 30;
	 108	 12	 0.001055	 0.004836	 0.0081	 432	 432	 432	 0	 0	 1	-30	 30;
	 41	 14	 0.002153	 0.014736	 0.0273	 565	 565	 565	 0	 0	 1	-30	 30;
	 52	 13	 0.000581	 0.003838	 0.0071	 507	 507	 507	 0	 0	 1	-30	 30;
	 94	 13	 0.001857	 0.020306	 0.0557	 566	 566	 566	 0	 0	 1	-30	 30;
	 138	 14	 0.002331	 0.015526	 0.0278	 549	 549	 549	 0	 0	 1	-30	 30;
	 158	 13	 0.001345	 0.008968	 0.0162	 566	 566	 566	 0	 0	 1	-30	 30;
	 53	 13	 0.000573	 0.003911	 0.0071	 415	 415	 415	 0	 0	 1	-30	 30;
	 76	 13	 0.001896	 0.012701	 0.0233	 501	 501	 501	 0	 0	 1	-30	 30;
	 60	 15	 0.000602	 0.006717	 0.1357	 1725	 1725	 1725	 0	 0	 1	-30	 30;
	 95	 15	 0.00063	 0.007098	 0.1588	 1916	 1916	 1916	 0	 0	 1	-30	 30;
	 150	 15	 0.000367	 0.004631	 0.1126	 2275	 2275	 2275	 0	 0	 1	-30	 30;
	 95	 15	 0.000472	 0.006201	 0.2137	 2487	 2487	 2487	 0	 0	 1	-30	 30;
	 145	 15	 0.001504	 0.019298	 0.4577	 1648	 1648	 1648	 0	 0	 1	-30	 30;
	 155	 16	 2e-05	 0.000198	 0.001	 566	 566	 566	 0	 0	 1	-30	 30;
	 73	 17	 0.000138	 0.00077	 0.001	 272	 272	 272	 0	 0	 1	-30	 30;
	 138	 18	 0.002252	 0.011951	 0.0218	 432	 432	 432	 0	 0	 1	-30	 30;
	 156	 18	 0.00079	 0.005333	 0.0101	 432	 432	 432	 0	 0	 1	-30	 30;
	 48	 20	 0.001027	 0.017738	 0.0101	 1954	 1954	 1954	 0	 0	 1	-30	 30;
	 73	 20	 0.000318	 0.002424	 0.0052	 575	 575	 575	 0	 0	 1	-30	 30;
	 47	 20	 0.001027	 0.017738	 0.0101	 1954	 1954	 1954	 0	 0	 1	-30	 30;
	 73	 20	 0.000397	 0.002657	 0.0051	 575	 575	 575	 0	 0	 1	-30	 30;
	 144	 21	 0.000936	 0.006236	 0.0146	 441	 441	 441	 0	 0	 1	-30	 30;
	 108	 22	 0.005215	 0.035002	 0.0638	 487	 487	 487	 0	 0	 1	-30	 30;
	 28	 24	 0.011378	 0.053886	 0.0957	 311	 311	 311	 0	 0	 1	-30	 30;
...